* +++++++++++++++++++++++++++++++++++++++++++++++++++++++++ *
* CDL Netlist:                                              *
*                                                           *
* Cell Name  : digital_ldo_top                              *
* Netlisted  : Wed Jan 29 00:53:36 2025                     *
* Pegasus Version: 22.14-s007 Tue Jan 31 16:35:56 PST 2023  *
* +++++++++++++++++++++++++++++++++++++++++++++++++++++++++ *
*.LDD
*.DEVTMPLT 0 MN(nfet_01v8) nfet_01v8_rec nSourceDrain(D) nfet(G) nSourceDrain(S) pwell(B)
*.DEVTMPLT 1 MP(pfet_01v8) pfet_01v8_rec pSourceDrain(D) pfet(G) pSourceDrain(S) nwell(B)
*.DEVTMPLT 2 MP(pfet_01v8_hvt) hvtpfet_01v8_rec pSourceDrain(D) hvtpfet(G) pSourceDrain(s) nwell(B)

* +++++++++++++++++++++++++++++++++++++++++++++++++++++++++ *
* Sub cell: sky130_fd_sc_hd__diode_2                        *
* +++++++++++++++++++++++++++++++++++++++++++++++++++++++++ *
.subckt sky130_fd_sc_hd__diode_2 1 2 3 4 5
** N=5 EP=5 FDC=0
.ends sky130_fd_sc_hd__diode_2

* +++++++++++++++++++++++++++++++++++++++++++++++++++++++++ *
* Sub cell: sky130_fd_sc_hd__clkbuf_1                       *
* +++++++++++++++++++++++++++++++++++++++++++++++++++++++++ *
.subckt sky130_fd_sc_hd__clkbuf_1 1 2 3 4 5 6
** N=7 EP=6 FDC=4
M0 3 7 2 5 nfet_01v8 L=1.5e-07 W=5.2e-07 $X=395 $Y=235 $dt=0
M1 7 4 3 5 nfet_01v8 L=1.5e-07 W=5.2e-07 $X=835 $Y=235 $dt=0
M2 1 7 2 6 pfet_01v8_hvt L=1.5e-07 W=7.9e-07 $X=395 $Y=1695 $dt=2
M3 7 4 1 6 pfet_01v8_hvt L=1.5e-07 W=7.9e-07 $X=835 $Y=1695 $dt=2
.ends sky130_fd_sc_hd__clkbuf_1

* +++++++++++++++++++++++++++++++++++++++++++++++++++++++++ *
* Sub cell: sky130_fd_sc_hd__buf_8                          *
* +++++++++++++++++++++++++++++++++++++++++++++++++++++++++ *
.subckt sky130_fd_sc_hd__buf_8 1 2 3 4 5 6 7
** N=8 EP=7 FDC=22
M0 3 4 8 5 nfet_01v8 L=1.5e-07 W=6.5e-07 $X=395 $Y=235 $dt=0
M1 8 4 3 5 nfet_01v8 L=1.5e-07 W=6.5e-07 $X=815 $Y=235 $dt=0
M2 3 4 8 5 nfet_01v8 L=1.5e-07 W=6.5e-07 $X=1235 $Y=235 $dt=0
M3 2 8 3 5 nfet_01v8 L=1.5e-07 W=6.5e-07 $X=1655 $Y=235 $dt=0
M4 3 8 2 5 nfet_01v8 L=1.5e-07 W=6.5e-07 $X=2075 $Y=235 $dt=0
M5 2 8 3 5 nfet_01v8 L=1.5e-07 W=6.5e-07 $X=2495 $Y=235 $dt=0
M6 3 8 2 5 nfet_01v8 L=1.5e-07 W=6.5e-07 $X=2915 $Y=235 $dt=0
M7 2 8 3 5 nfet_01v8 L=1.5e-07 W=6.5e-07 $X=3335 $Y=235 $dt=0
M8 3 8 2 5 nfet_01v8 L=1.5e-07 W=6.5e-07 $X=3755 $Y=235 $dt=0
M9 2 8 3 5 nfet_01v8 L=1.5e-07 W=6.5e-07 $X=4175 $Y=235 $dt=0
M10 3 8 2 5 nfet_01v8 L=1.5e-07 W=6.5e-07 $X=4595 $Y=235 $dt=0
M11 1 4 8 7 pfet_01v8_hvt L=1.5e-07 W=1e-06 $X=395 $Y=1485 $dt=2
M12 8 4 1 7 pfet_01v8_hvt L=1.5e-07 W=1e-06 $X=815 $Y=1485 $dt=2
M13 1 4 8 7 pfet_01v8_hvt L=1.5e-07 W=1e-06 $X=1235 $Y=1485 $dt=2
M14 2 8 1 7 pfet_01v8_hvt L=1.5e-07 W=1e-06 $X=1655 $Y=1485 $dt=2
M15 1 8 2 7 pfet_01v8_hvt L=1.5e-07 W=1e-06 $X=2075 $Y=1485 $dt=2
M16 2 8 1 7 pfet_01v8_hvt L=1.5e-07 W=1e-06 $X=2495 $Y=1485 $dt=2
M17 1 8 2 7 pfet_01v8_hvt L=1.5e-07 W=1e-06 $X=2915 $Y=1485 $dt=2
M18 2 8 1 7 pfet_01v8_hvt L=1.5e-07 W=1e-06 $X=3335 $Y=1485 $dt=2
M19 1 8 2 7 pfet_01v8_hvt L=1.5e-07 W=1e-06 $X=3755 $Y=1485 $dt=2
M20 2 8 1 7 pfet_01v8_hvt L=1.5e-07 W=1e-06 $X=4175 $Y=1485 $dt=2
M21 1 8 2 7 pfet_01v8_hvt L=1.5e-07 W=1e-06 $X=4595 $Y=1485 $dt=2
.ends sky130_fd_sc_hd__buf_8

* +++++++++++++++++++++++++++++++++++++++++++++++++++++++++ *
* Sub cell: sky130_fd_sc_hd__dlygate4sd2_1                  *
* +++++++++++++++++++++++++++++++++++++++++++++++++++++++++ *
.subckt sky130_fd_sc_hd__dlygate4sd2_1 1 2 3 4 5 6
** N=9 EP=6 FDC=8
M0 3 4 7 5 nfet_01v8 L=1.5e-07 W=4.2e-07 $X=505 $Y=235 $dt=0
M1 8 7 3 5 nfet_01v8 L=1.8e-07 W=4.2e-07 $X=925 $Y=235 $dt=0
M2 3 8 9 5 nfet_01v8 L=1.8e-07 W=4.2e-07 $X=1895 $Y=235 $dt=0
M3 2 9 3 5 nfet_01v8 L=1.5e-07 W=6.5e-07 $X=2400 $Y=235 $dt=0
M4 1 4 7 6 pfet_01v8_hvt L=1.5e-07 W=4.2e-07 $X=505 $Y=2065 $dt=2
M5 8 7 1 6 pfet_01v8_hvt L=1.8e-07 W=4.2e-07 $X=925 $Y=2065 $dt=2
M6 1 8 9 6 pfet_01v8_hvt L=1.8e-07 W=4.2e-07 $X=1895 $Y=2065 $dt=2
M7 2 9 1 6 pfet_01v8_hvt L=1.5e-07 W=1e-06 $X=2400 $Y=1485 $dt=2
.ends sky130_fd_sc_hd__dlygate4sd2_1

* +++++++++++++++++++++++++++++++++++++++++++++++++++++++++ *
* Sub cell: sky130_fd_sc_hd__clkbuf_2                       *
* +++++++++++++++++++++++++++++++++++++++++++++++++++++++++ *
.subckt sky130_fd_sc_hd__clkbuf_2 1 2 3 4 5 6
** N=7 EP=6 FDC=6
M0 3 4 7 5 nfet_01v8 L=1.5e-07 W=4.2e-07 $X=400 $Y=235 $dt=0
M1 2 7 3 5 nfet_01v8 L=1.5e-07 W=4.2e-07 $X=875 $Y=235 $dt=0
M2 3 7 2 5 nfet_01v8 L=1.5e-07 W=4.2e-07 $X=1295 $Y=235 $dt=0
M3 1 4 7 6 pfet_01v8_hvt L=1.5e-07 W=1e-06 $X=400 $Y=1485 $dt=2
M4 2 7 1 6 pfet_01v8_hvt L=1.5e-07 W=1e-06 $X=875 $Y=1485 $dt=2
M5 1 7 2 6 pfet_01v8_hvt L=1.5e-07 W=1e-06 $X=1295 $Y=1485 $dt=2
.ends sky130_fd_sc_hd__clkbuf_2

* +++++++++++++++++++++++++++++++++++++++++++++++++++++++++ *
* Sub cell: sky130_fd_sc_hd__clkbuf_1_DigitalLDOLogic_gds        *
* +++++++++++++++++++++++++++++++++++++++++++++++++++++++++ *
.subckt sky130_fd_sc_hd__clkbuf_1_DigitalLDOLogic_gds 1 2 3 4 5 6
** N=7 EP=6 FDC=4
M0 3 7 1 5 nfet_01v8 L=1.5e-07 W=5.2e-07 $X=395 $Y=235 $dt=0
M1 7 4 3 5 nfet_01v8 L=1.5e-07 W=5.2e-07 $X=835 $Y=235 $dt=0
M2 2 7 1 6 pfet_01v8_hvt L=1.5e-07 W=7.9e-07 $X=395 $Y=1695 $dt=2
M3 7 4 2 6 pfet_01v8_hvt L=1.5e-07 W=7.9e-07 $X=835 $Y=1695 $dt=2
.ends sky130_fd_sc_hd__clkbuf_1_DigitalLDOLogic_gds

* +++++++++++++++++++++++++++++++++++++++++++++++++++++++++ *
* Sub cell: sky130_fd_sc_hd__buf_8_DigitalLDOLogic_gds        *
* +++++++++++++++++++++++++++++++++++++++++++++++++++++++++ *
.subckt sky130_fd_sc_hd__buf_8_DigitalLDOLogic_gds 1 2 3 4 5 6
** N=7 EP=6 FDC=22
M0 3 4 7 5 nfet_01v8 L=1.5e-07 W=6.5e-07 $X=395 $Y=235 $dt=0
M1 7 4 3 5 nfet_01v8 L=1.5e-07 W=6.5e-07 $X=815 $Y=235 $dt=0
M2 3 4 7 5 nfet_01v8 L=1.5e-07 W=6.5e-07 $X=1235 $Y=235 $dt=0
M3 2 7 3 5 nfet_01v8 L=1.5e-07 W=6.5e-07 $X=1655 $Y=235 $dt=0
M4 3 7 2 5 nfet_01v8 L=1.5e-07 W=6.5e-07 $X=2075 $Y=235 $dt=0
M5 2 7 3 5 nfet_01v8 L=1.5e-07 W=6.5e-07 $X=2495 $Y=235 $dt=0
M6 3 7 2 5 nfet_01v8 L=1.5e-07 W=6.5e-07 $X=2915 $Y=235 $dt=0
M7 2 7 3 5 nfet_01v8 L=1.5e-07 W=6.5e-07 $X=3335 $Y=235 $dt=0
M8 3 7 2 5 nfet_01v8 L=1.5e-07 W=6.5e-07 $X=3755 $Y=235 $dt=0
M9 2 7 3 5 nfet_01v8 L=1.5e-07 W=6.5e-07 $X=4175 $Y=235 $dt=0
M10 3 7 2 5 nfet_01v8 L=1.5e-07 W=6.5e-07 $X=4595 $Y=235 $dt=0
M11 1 4 7 6 pfet_01v8_hvt L=1.5e-07 W=1e-06 $X=395 $Y=1485 $dt=2
M12 7 4 1 6 pfet_01v8_hvt L=1.5e-07 W=1e-06 $X=815 $Y=1485 $dt=2
M13 1 4 7 6 pfet_01v8_hvt L=1.5e-07 W=1e-06 $X=1235 $Y=1485 $dt=2
M14 2 7 1 6 pfet_01v8_hvt L=1.5e-07 W=1e-06 $X=1655 $Y=1485 $dt=2
M15 1 7 2 6 pfet_01v8_hvt L=1.5e-07 W=1e-06 $X=2075 $Y=1485 $dt=2
M16 2 7 1 6 pfet_01v8_hvt L=1.5e-07 W=1e-06 $X=2495 $Y=1485 $dt=2
M17 1 7 2 6 pfet_01v8_hvt L=1.5e-07 W=1e-06 $X=2915 $Y=1485 $dt=2
M18 2 7 1 6 pfet_01v8_hvt L=1.5e-07 W=1e-06 $X=3335 $Y=1485 $dt=2
M19 1 7 2 6 pfet_01v8_hvt L=1.5e-07 W=1e-06 $X=3755 $Y=1485 $dt=2
M20 2 7 1 6 pfet_01v8_hvt L=1.5e-07 W=1e-06 $X=4175 $Y=1485 $dt=2
M21 1 7 2 6 pfet_01v8_hvt L=1.5e-07 W=1e-06 $X=4595 $Y=1485 $dt=2
.ends sky130_fd_sc_hd__buf_8_DigitalLDOLogic_gds

* +++++++++++++++++++++++++++++++++++++++++++++++++++++++++ *
* Sub cell: sky130_fd_sc_hd__dfxtp_1                        *
* +++++++++++++++++++++++++++++++++++++++++++++++++++++++++ *
.subckt sky130_fd_sc_hd__dfxtp_1 1 2 3 4 5 6 7
** N=22 EP=7 FDC=24
M0 3 4 9 6 nfet_01v8 L=1.5e-07 W=4.2e-07 $X=395 $Y=235 $dt=0
M1 8 9 3 6 nfet_01v8 L=1.5e-07 W=4.2e-07 $X=815 $Y=235 $dt=0
M2 10 5 3 6 nfet_01v8 L=1.5e-07 W=4.2e-07 $X=1755 $Y=235 $dt=0
M3 11 9 10 6 nfet_01v8 L=1.5e-07 W=3.6e-07 $X=2315 $Y=235 $dt=0
M4 17 8 11 6 nfet_01v8 L=1.5e-07 W=3.6e-07 $X=2810 $Y=235 $dt=0
M5 3 12 17 6 nfet_01v8 L=1.5e-07 W=4.2e-07 $X=3305 $Y=235 $dt=0
M6 12 11 3 6 nfet_01v8 L=1.5e-07 W=6.4e-07 $X=3900 $Y=235 $dt=0
M7 13 8 12 6 nfet_01v8 L=1.5e-07 W=3.6e-07 $X=4405 $Y=235 $dt=0
M8 18 9 13 6 nfet_01v8 L=1.5e-07 W=3.6e-07 $X=4935 $Y=235 $dt=0
M9 3 14 18 6 nfet_01v8 L=1.5e-07 W=4.2e-07 $X=5410 $Y=235 $dt=0
M10 3 13 14 6 nfet_01v8 L=1.5e-07 W=6.5e-07 $X=6355 $Y=235 $dt=0
M11 2 14 3 6 nfet_01v8 L=1.5e-07 W=6.5e-07 $X=6775 $Y=235 $dt=0
M12 1 4 9 7 pfet_01v8_hvt L=1.5e-07 W=6.4e-07 $X=395 $Y=1815 $dt=2
M13 8 9 1 7 pfet_01v8_hvt L=1.5e-07 W=6.4e-07 $X=815 $Y=1815 $dt=2
M14 10 5 1 7 pfet_01v8_hvt L=1.5e-07 W=4.2e-07 $X=1755 $Y=2065 $dt=2
M15 11 8 10 7 pfet_01v8_hvt L=1.5e-07 W=4.2e-07 $X=2180 $Y=2065 $dt=2
M16 15 9 11 7 pfet_01v8_hvt L=1.5e-07 W=4.2e-07 $X=2655 $Y=2065 $dt=2
M17 1 12 15 7 pfet_01v8_hvt L=1.5e-07 W=4.2e-07 $X=3170 $Y=2065 $dt=2
M18 12 11 1 7 pfet_01v8_hvt L=1.5e-07 W=7.5e-07 $X=3830 $Y=1735 $dt=2
M19 13 9 12 7 pfet_01v8_hvt L=1.5e-07 W=4.2e-07 $X=4305 $Y=2065 $dt=2
M20 16 8 13 7 pfet_01v8_hvt L=1.5e-07 W=4.2e-07 $X=4725 $Y=2065 $dt=2
M21 1 14 16 7 pfet_01v8_hvt L=1.5e-07 W=4.2e-07 $X=5295 $Y=2065 $dt=2
M22 1 13 14 7 pfet_01v8_hvt L=1.5e-07 W=1e-06 $X=6345 $Y=1485 $dt=2
M23 2 14 1 7 pfet_01v8_hvt L=1.5e-07 W=1e-06 $X=6765 $Y=1485 $dt=2
.ends sky130_fd_sc_hd__dfxtp_1

* +++++++++++++++++++++++++++++++++++++++++++++++++++++++++ *
* Sub cell: sky130_fd_sc_hd__a221o_1                        *
* +++++++++++++++++++++++++++++++++++++++++++++++++++++++++ *
.subckt sky130_fd_sc_hd__a221o_1 1 2 3 4 5 6 7 8 9 10
** N=17 EP=10 FDC=12
M0 3 4 13 9 nfet_01v8 L=1.5e-07 W=6.5e-07 $X=395 $Y=235 $dt=0
M1 14 5 3 9 nfet_01v8 L=1.5e-07 W=6.5e-07 $X=875 $Y=235 $dt=0
M2 13 6 14 9 nfet_01v8 L=1.5e-07 W=6.5e-07 $X=1235 $Y=235 $dt=0
M3 15 7 13 9 nfet_01v8 L=1.5e-07 W=6.5e-07 $X=2175 $Y=235 $dt=0
M4 3 8 15 9 nfet_01v8 L=1.5e-07 W=6.5e-07 $X=2655 $Y=235 $dt=0
M5 1 13 3 9 nfet_01v8 L=1.5e-07 W=6.5e-07 $X=3120 $Y=235 $dt=0
M6 11 4 13 10 pfet_01v8_hvt L=1.5e-07 W=1e-06 $X=395 $Y=1485 $dt=2
M7 12 5 11 10 pfet_01v8_hvt L=1.5e-07 W=1e-06 $X=815 $Y=1485 $dt=2
M8 11 6 12 10 pfet_01v8_hvt L=1.5e-07 W=1e-06 $X=1235 $Y=1485 $dt=2
M9 12 7 2 10 pfet_01v8_hvt L=1.5e-07 W=1e-06 $X=2175 $Y=1485 $dt=2
M10 2 8 12 10 pfet_01v8_hvt L=1.5e-07 W=1e-06 $X=2655 $Y=1485 $dt=2
M11 1 13 2 10 pfet_01v8_hvt L=1.5e-07 W=1e-06 $X=3120 $Y=1485 $dt=2
.ends sky130_fd_sc_hd__a221o_1

* +++++++++++++++++++++++++++++++++++++++++++++++++++++++++ *
* Sub cell: sky130_fd_sc_hd__a21o_1                         *
* +++++++++++++++++++++++++++++++++++++++++++++++++++++++++ *
.subckt sky130_fd_sc_hd__a21o_1 1 2 3 4 5 6 7 8
** N=12 EP=8 FDC=8
M0 3 9 1 7 nfet_01v8 L=1.5e-07 W=6.5e-07 $X=405 $Y=235 $dt=0
M1 9 4 3 7 nfet_01v8 L=1.5e-07 W=6.5e-07 $X=1345 $Y=235 $dt=0
M2 11 5 9 7 nfet_01v8 L=1.5e-07 W=6.5e-07 $X=1770 $Y=235 $dt=0
M3 3 6 11 7 nfet_01v8 L=1.5e-07 W=6.5e-07 $X=2200 $Y=235 $dt=0
M4 2 9 1 8 pfet_01v8_hvt L=1.5e-07 W=1e-06 $X=405 $Y=1485 $dt=2
M5 10 4 9 8 pfet_01v8_hvt L=1.5e-07 W=1e-06 $X=1345 $Y=1485 $dt=2
M6 2 5 10 8 pfet_01v8_hvt L=1.5e-07 W=1e-06 $X=1770 $Y=1485 $dt=2
M7 10 6 2 8 pfet_01v8_hvt L=1.5e-07 W=1e-06 $X=2200 $Y=1485 $dt=2
.ends sky130_fd_sc_hd__a21o_1

* +++++++++++++++++++++++++++++++++++++++++++++++++++++++++ *
* Sub cell: sky130_fd_sc_hd__or3_1                          *
* +++++++++++++++++++++++++++++++++++++++++++++++++++++++++ *
.subckt sky130_fd_sc_hd__or3_1 1 2 3 4 5 6 7 8
** N=13 EP=8 FDC=8
M0 3 4 9 7 nfet_01v8 L=1.5e-07 W=4.2e-07 $X=405 $Y=265 $dt=0
M1 9 5 3 7 nfet_01v8 L=1.5e-07 W=4.2e-07 $X=825 $Y=265 $dt=0
M2 3 6 9 7 nfet_01v8 L=1.5e-07 W=4.2e-07 $X=1245 $Y=265 $dt=0
M3 2 9 3 7 nfet_01v8 L=1.5e-07 W=6.5e-07 $X=1735 $Y=235 $dt=0
M4 10 4 9 8 pfet_01v8_hvt L=1.5e-07 W=4.2e-07 $X=405 $Y=1485 $dt=2
M5 11 5 10 8 pfet_01v8_hvt L=1.5e-07 W=4.2e-07 $X=765 $Y=1485 $dt=2
M6 1 6 11 8 pfet_01v8_hvt L=1.5e-07 W=4.2e-07 $X=1245 $Y=1485 $dt=2
M7 2 9 1 8 pfet_01v8_hvt L=1.5e-07 W=1e-06 $X=1735 $Y=1485 $dt=2
.ends sky130_fd_sc_hd__or3_1

* +++++++++++++++++++++++++++++++++++++++++++++++++++++++++ *
* Sub cell: sky130_fd_sc_hd__inv_2                          *
* +++++++++++++++++++++++++++++++++++++++++++++++++++++++++ *
.subckt sky130_fd_sc_hd__inv_2 1 2 3 4 5 6
** N=6 EP=6 FDC=4
M0 2 4 3 5 nfet_01v8 L=1.5e-07 W=6.5e-07 $X=405 $Y=235 $dt=0
M1 3 4 2 5 nfet_01v8 L=1.5e-07 W=6.5e-07 $X=825 $Y=235 $dt=0
M2 2 4 1 6 pfet_01v8_hvt L=1.5e-07 W=1e-06 $X=405 $Y=1485 $dt=2
M3 1 4 2 6 pfet_01v8_hvt L=1.5e-07 W=1e-06 $X=825 $Y=1485 $dt=2
.ends sky130_fd_sc_hd__inv_2

* +++++++++++++++++++++++++++++++++++++++++++++++++++++++++ *
* Sub cell: sky130_fd_sc_hd__tap_1_DigitalLDOLogic_gds        *
* +++++++++++++++++++++++++++++++++++++++++++++++++++++++++ *
.subckt sky130_fd_sc_hd__tap_1_DigitalLDOLogic_gds 1 2 3 4
** N=4 EP=4 FDC=0
.ends sky130_fd_sc_hd__tap_1_DigitalLDOLogic_gds

* +++++++++++++++++++++++++++++++++++++++++++++++++++++++++ *
* Sub cell: sky130_fd_sc_hd__tapvpwrvgnd_1_DigitalLDOLogic_gds        *
* +++++++++++++++++++++++++++++++++++++++++++++++++++++++++ *
.subckt sky130_fd_sc_hd__tapvpwrvgnd_1_DigitalLDOLogic_gds 1 2
** N=2 EP=2 FDC=0
.ends sky130_fd_sc_hd__tapvpwrvgnd_1_DigitalLDOLogic_gds

* +++++++++++++++++++++++++++++++++++++++++++++++++++++++++ *
* Sub cell: sky130_fd_sc_hd__decap_6_DigitalLDOLogic_gds        *
* +++++++++++++++++++++++++++++++++++++++++++++++++++++++++ *
.subckt sky130_fd_sc_hd__decap_6_DigitalLDOLogic_gds 1 2 3 4
** N=4 EP=4 FDC=2
M0 2 1 2 3 nfet_01v8 L=1.97e-06 W=5.5e-07 $X=395 $Y=235 $dt=0
M1 1 2 1 4 pfet_01v8_hvt L=1.97e-06 W=8.7e-07 $X=395 $Y=1615 $dt=2
.ends sky130_fd_sc_hd__decap_6_DigitalLDOLogic_gds

* +++++++++++++++++++++++++++++++++++++++++++++++++++++++++ *
* Sub cell: sky130_fd_sc_hd__decap_3_DigitalLDOLogic_gds        *
* +++++++++++++++++++++++++++++++++++++++++++++++++++++++++ *
.subckt sky130_fd_sc_hd__decap_3_DigitalLDOLogic_gds 1 2 3 4
** N=4 EP=4 FDC=2
M0 2 1 2 3 nfet_01v8 L=5.9e-07 W=5.5e-07 $X=395 $Y=235 $dt=0
M1 1 2 1 4 pfet_01v8_hvt L=5.9e-07 W=8.7e-07 $X=395 $Y=1615 $dt=2
.ends sky130_fd_sc_hd__decap_3_DigitalLDOLogic_gds

* +++++++++++++++++++++++++++++++++++++++++++++++++++++++++ *
* Sub cell: sky130_fd_sc_hd__decap_12_DigitalLDOLogic_gds        *
* +++++++++++++++++++++++++++++++++++++++++++++++++++++++++ *
.subckt sky130_fd_sc_hd__decap_12_DigitalLDOLogic_gds 1 2 3 4
** N=4 EP=4 FDC=2
M0 2 1 2 3 nfet_01v8 L=4.73e-06 W=5.5e-07 $X=395 $Y=235 $dt=0
M1 1 2 1 4 pfet_01v8_hvt L=4.73e-06 W=8.7e-07 $X=395 $Y=1615 $dt=2
.ends sky130_fd_sc_hd__decap_12_DigitalLDOLogic_gds

* +++++++++++++++++++++++++++++++++++++++++++++++++++++++++ *
* Sub cell: sky130_fd_sc_hd__decap_4_DigitalLDOLogic_gds        *
* +++++++++++++++++++++++++++++++++++++++++++++++++++++++++ *
.subckt sky130_fd_sc_hd__decap_4_DigitalLDOLogic_gds 1 2 3 4
** N=4 EP=4 FDC=2
M0 2 1 2 3 nfet_01v8 L=1.05e-06 W=5.5e-07 $X=395 $Y=235 $dt=0
M1 1 2 1 4 pfet_01v8_hvt L=1.05e-06 W=8.7e-07 $X=395 $Y=1615 $dt=2
.ends sky130_fd_sc_hd__decap_4_DigitalLDOLogic_gds

* +++++++++++++++++++++++++++++++++++++++++++++++++++++++++ *
* Sub cell: sky130_fd_sc_hd__decap_8_DigitalLDOLogic_gds        *
* +++++++++++++++++++++++++++++++++++++++++++++++++++++++++ *
.subckt sky130_fd_sc_hd__decap_8_DigitalLDOLogic_gds 1 2 3 4
** N=4 EP=4 FDC=2
M0 2 1 2 3 nfet_01v8 L=2.89e-06 W=5.5e-07 $X=395 $Y=235 $dt=0
M1 1 2 1 4 pfet_01v8_hvt L=2.89e-06 W=8.7e-07 $X=395 $Y=1615 $dt=2
.ends sky130_fd_sc_hd__decap_8_DigitalLDOLogic_gds

* +++++++++++++++++++++++++++++++++++++++++++++++++++++++++ *
* Sub cell: sky130_fd_sc_hd__fill_1_DigitalLDOLogic_gds        *
* +++++++++++++++++++++++++++++++++++++++++++++++++++++++++ *
.subckt sky130_fd_sc_hd__fill_1_DigitalLDOLogic_gds 1 2 3 4
** N=4 EP=4 FDC=0
.ends sky130_fd_sc_hd__fill_1_DigitalLDOLogic_gds

* +++++++++++++++++++++++++++++++++++++++++++++++++++++++++ *
* Sub cell: sky130_fd_sc_hd__fill_2_DigitalLDOLogic_gds        *
* +++++++++++++++++++++++++++++++++++++++++++++++++++++++++ *
.subckt sky130_fd_sc_hd__fill_2_DigitalLDOLogic_gds 1 2 3 4
** N=4 EP=4 FDC=0
.ends sky130_fd_sc_hd__fill_2_DigitalLDOLogic_gds

* +++++++++++++++++++++++++++++++++++++++++++++++++++++++++ *
* Sub cell: L1M1_PR_DigitalLDOLogic_gds                     *
* +++++++++++++++++++++++++++++++++++++++++++++++++++++++++ *
.subckt L1M1_PR_DigitalLDOLogic_gds 1
** N=1 EP=1 FDC=0
.ends L1M1_PR_DigitalLDOLogic_gds

* +++++++++++++++++++++++++++++++++++++++++++++++++++++++++ *
* Sub cell: M1M2_PR_M                                       *
* +++++++++++++++++++++++++++++++++++++++++++++++++++++++++ *
.subckt M1M2_PR_M 1
** N=1 EP=1 FDC=0
.ends M1M2_PR_M

* +++++++++++++++++++++++++++++++++++++++++++++++++++++++++ *
* Sub cell: M1M2_PR_DigitalLDOLogic_gds                     *
* +++++++++++++++++++++++++++++++++++++++++++++++++++++++++ *
.subckt M1M2_PR_DigitalLDOLogic_gds 1
** N=1 EP=1 FDC=0
.ends M1M2_PR_DigitalLDOLogic_gds

* +++++++++++++++++++++++++++++++++++++++++++++++++++++++++ *
* Sub cell: M2M3_PR_DigitalLDOLogic_gds                     *
* +++++++++++++++++++++++++++++++++++++++++++++++++++++++++ *
.subckt M2M3_PR_DigitalLDOLogic_gds 1
** N=1 EP=1 FDC=0
.ends M2M3_PR_DigitalLDOLogic_gds

* +++++++++++++++++++++++++++++++++++++++++++++++++++++++++ *
* Sub cell: M3M4_PR_DigitalLDOLogic_gds                     *
* +++++++++++++++++++++++++++++++++++++++++++++++++++++++++ *
.subckt M3M4_PR_DigitalLDOLogic_gds 1
** N=1 EP=1 FDC=0
.ends M3M4_PR_DigitalLDOLogic_gds

* +++++++++++++++++++++++++++++++++++++++++++++++++++++++++ *
* Sub cell: DigitalLDOLogic_VIA0                            *
* +++++++++++++++++++++++++++++++++++++++++++++++++++++++++ *
.subckt DigitalLDOLogic_VIA0 1
** N=1 EP=1 FDC=0
.ends DigitalLDOLogic_VIA0

* +++++++++++++++++++++++++++++++++++++++++++++++++++++++++ *
* Sub cell: DigitalLDOLogic_VIA1                            *
* +++++++++++++++++++++++++++++++++++++++++++++++++++++++++ *
.subckt DigitalLDOLogic_VIA1 1
** N=1 EP=1 FDC=0
.ends DigitalLDOLogic_VIA1

* +++++++++++++++++++++++++++++++++++++++++++++++++++++++++ *
* Sub cell: DigitalLDOLogic_VIA2                            *
* +++++++++++++++++++++++++++++++++++++++++++++++++++++++++ *
.subckt DigitalLDOLogic_VIA2 1
** N=1 EP=1 FDC=0
.ends DigitalLDOLogic_VIA2

* +++++++++++++++++++++++++++++++++++++++++++++++++++++++++ *
* Sub cell: DigitalLDOLogic_VIA3                            *
* +++++++++++++++++++++++++++++++++++++++++++++++++++++++++ *
.subckt DigitalLDOLogic_VIA3 1
** N=1 EP=1 FDC=0
.ends DigitalLDOLogic_VIA3

* +++++++++++++++++++++++++++++++++++++++++++++++++++++++++ *
* Sub cell: DigitalLDOLogic_VIA4                            *
* +++++++++++++++++++++++++++++++++++++++++++++++++++++++++ *
.subckt DigitalLDOLogic_VIA4 1
** N=1 EP=1 FDC=0
.ends DigitalLDOLogic_VIA4

* +++++++++++++++++++++++++++++++++++++++++++++++++++++++++ *
* Sub cell: MASCO__Y3                                       *
* +++++++++++++++++++++++++++++++++++++++++++++++++++++++++ *
.subckt MASCO__Y3 1 2
** N=2 EP=2 FDC=0
X0 1 DigitalLDOLogic_VIA3 $T=710 1000 0 0 $X=0 $Y=0
X1 1 DigitalLDOLogic_VIA3 $T=6230 1000 0 0 $X=5520 $Y=0
X2 1 DigitalLDOLogic_VIA3 $T=11750 1000 0 0 $X=11040 $Y=0
X3 1 DigitalLDOLogic_VIA3 $T=17270 1000 0 0 $X=16560 $Y=0
X4 1 DigitalLDOLogic_VIA3 $T=22790 1000 0 0 $X=22080 $Y=0
X5 1 DigitalLDOLogic_VIA3 $T=28310 1000 0 0 $X=27600 $Y=0
X6 1 DigitalLDOLogic_VIA3 $T=33830 1000 0 0 $X=33120 $Y=0
X7 1 DigitalLDOLogic_VIA3 $T=39350 1000 0 0 $X=38640 $Y=0
.ends MASCO__Y3

* +++++++++++++++++++++++++++++++++++++++++++++++++++++++++ *
* Sub cell: MASCO__B94                                      *
* +++++++++++++++++++++++++++++++++++++++++++++++++++++++++ *
.subckt MASCO__B94 1 2
** N=2 EP=2 FDC=4
X0 1 2 sky130_fd_sc_hd__tapvpwrvgnd_1_DigitalLDOLogic_gds $T=190 2960 1 0 $X=0 $Y=0
X1 1 2 sky130_fd_sc_hd__tapvpwrvgnd_1_DigitalLDOLogic_gds $T=190 2960 0 0 $X=0 $Y=2720
X2 1 2 2 1 sky130_fd_sc_hd__decap_12_DigitalLDOLogic_gds $T=650 2960 1 0 $X=460 $Y=0
X3 1 2 2 1 sky130_fd_sc_hd__decap_12_DigitalLDOLogic_gds $T=650 2960 0 0 $X=460 $Y=2720
.ends MASCO__B94

* +++++++++++++++++++++++++++++++++++++++++++++++++++++++++ *
* Sub cell: MASCO__B97                                      *
* +++++++++++++++++++++++++++++++++++++++++++++++++++++++++ *
.subckt MASCO__B97 1 2
** N=2 EP=2 FDC=8
X0 1 2 2 1 sky130_fd_sc_hd__decap_3_DigitalLDOLogic_gds $T=2030 2960 1 0 $X=1840 $Y=0
X1 1 2 2 1 sky130_fd_sc_hd__decap_3_DigitalLDOLogic_gds $T=2030 2960 0 0 $X=1840 $Y=2720
X2 1 2 2 1 sky130_fd_sc_hd__decap_4_DigitalLDOLogic_gds $T=190 2960 1 0 $X=0 $Y=0
X3 1 2 2 1 sky130_fd_sc_hd__decap_4_DigitalLDOLogic_gds $T=190 2960 0 0 $X=0 $Y=2720
.ends MASCO__B97

* +++++++++++++++++++++++++++++++++++++++++++++++++++++++++ *
* Sub cell: MASCO__B101                                     *
* +++++++++++++++++++++++++++++++++++++++++++++++++++++++++ *
.subckt MASCO__B101 1 2
** N=2 EP=2 FDC=4
X0 1 2 sky130_fd_sc_hd__tapvpwrvgnd_1_DigitalLDOLogic_gds $T=1570 2960 1 0 $X=1380 $Y=0
X1 1 2 sky130_fd_sc_hd__tapvpwrvgnd_1_DigitalLDOLogic_gds $T=1570 2960 0 0 $X=1380 $Y=2720
X2 1 2 2 1 sky130_fd_sc_hd__decap_3_DigitalLDOLogic_gds $T=190 2960 1 0 $X=0 $Y=0
X3 1 2 2 1 sky130_fd_sc_hd__decap_3_DigitalLDOLogic_gds $T=190 2960 0 0 $X=0 $Y=2720
.ends MASCO__B101

* +++++++++++++++++++++++++++++++++++++++++++++++++++++++++ *
* Sub cell: DigitalLDOLogic                                 *
* +++++++++++++++++++++++++++++++++++++++++++++++++++++++++ *
.subckt DigitalLDOLogic 1 2 3 4 5 6 7 8 9 10
+ 11 12 13 14 15 16 17 18 19 20
+ 21 22 23 24 25 26 27 28 29 30
+ 31 32 33 34 35 36 37 38 39 40
+ 41 42 43 44 45 46 47 48 49 50
+ 51 52 53 54 55 56 57 58 59 60
+ 61 62 63 64 65 66 67 68 69 70
+ 71 72 73 74 75
** N=181 EP=75 FDC=3456
X0 1 76 2 77 2 1 sky130_fd_sc_hd__dlygate4sd2_1 $T=162260 18160 0 0 $X=162070 $Y=17920
X1 1 78 2 29 2 1 sky130_fd_sc_hd__clkbuf_2 $T=171460 23600 1 0 $X=171270 $Y=20640
X2 1 79 2 37 2 1 sky130_fd_sc_hd__clkbuf_2 $T=172840 18160 0 0 $X=172650 $Y=17920
X3 80 1 2 14 2 1 sky130_fd_sc_hd__clkbuf_1_DigitalLDOLogic_gds $T=60140 23600 1 0 $X=59950 $Y=20640
X4 81 1 2 14 2 1 sky130_fd_sc_hd__clkbuf_1_DigitalLDOLogic_gds $T=80840 23600 0 180 $X=79270 $Y=20640
X5 82 1 2 14 2 1 sky130_fd_sc_hd__clkbuf_1_DigitalLDOLogic_gds $T=134660 23600 0 180 $X=133090 $Y=20640
X6 83 1 2 14 2 1 sky130_fd_sc_hd__clkbuf_1_DigitalLDOLogic_gds $T=171460 23600 0 180 $X=169890 $Y=20640
X7 1 3 2 84 2 1 sky130_fd_sc_hd__buf_8_DigitalLDOLogic_gds $T=19200 12720 0 0 $X=19010 $Y=12480
X8 1 4 2 85 2 1 sky130_fd_sc_hd__buf_8_DigitalLDOLogic_gds $T=19200 18160 1 0 $X=19010 $Y=15200
X9 1 5 2 86 2 1 sky130_fd_sc_hd__buf_8_DigitalLDOLogic_gds $T=21040 23600 0 0 $X=20850 $Y=23360
X10 1 6 2 87 2 1 sky130_fd_sc_hd__buf_8_DigitalLDOLogic_gds $T=29780 12720 1 0 $X=29590 $Y=9760
X11 1 7 2 88 2 1 sky130_fd_sc_hd__buf_8_DigitalLDOLogic_gds $T=29780 18160 1 0 $X=29590 $Y=15200
X12 1 8 2 10 2 1 sky130_fd_sc_hd__buf_8_DigitalLDOLogic_gds $T=38060 12720 1 180 $X=32350 $Y=12480
X13 1 9 2 89 2 1 sky130_fd_sc_hd__buf_8_DigitalLDOLogic_gds $T=40820 29040 0 180 $X=35110 $Y=26080
X14 1 11 2 90 2 1 sky130_fd_sc_hd__buf_8_DigitalLDOLogic_gds $T=41280 18160 0 180 $X=35570 $Y=15200
X15 1 12 2 91 2 1 sky130_fd_sc_hd__buf_8_DigitalLDOLogic_gds $T=47720 12720 1 0 $X=47530 $Y=9760
X16 1 15 2 92 2 1 sky130_fd_sc_hd__buf_8_DigitalLDOLogic_gds $T=62440 12720 1 0 $X=62250 $Y=9760
X17 1 16 2 93 2 1 sky130_fd_sc_hd__buf_8_DigitalLDOLogic_gds $T=65660 12720 0 0 $X=65470 $Y=12480
X18 1 13 2 94 2 1 sky130_fd_sc_hd__buf_8_DigitalLDOLogic_gds $T=65660 23600 0 0 $X=65470 $Y=23360
X19 1 19 2 18 2 1 sky130_fd_sc_hd__buf_8_DigitalLDOLogic_gds $T=73940 12720 1 0 $X=73750 $Y=9760
X20 1 17 2 95 2 1 sky130_fd_sc_hd__buf_8_DigitalLDOLogic_gds $T=73940 18160 1 0 $X=73750 $Y=15200
X21 1 21 2 96 2 1 sky130_fd_sc_hd__buf_8_DigitalLDOLogic_gds $T=82680 12720 1 0 $X=82490 $Y=9760
X22 1 20 2 97 2 1 sky130_fd_sc_hd__buf_8_DigitalLDOLogic_gds $T=91420 12720 1 0 $X=91230 $Y=9760
X23 1 22 2 98 2 1 sky130_fd_sc_hd__buf_8_DigitalLDOLogic_gds $T=97400 12720 1 0 $X=97210 $Y=9760
X24 1 24 2 99 2 1 sky130_fd_sc_hd__buf_8_DigitalLDOLogic_gds $T=103380 12720 0 0 $X=103190 $Y=12480
X25 1 23 2 100 2 1 sky130_fd_sc_hd__buf_8_DigitalLDOLogic_gds $T=103380 18160 1 0 $X=103190 $Y=15200
X26 1 25 2 101 2 1 sky130_fd_sc_hd__buf_8_DigitalLDOLogic_gds $T=114880 18160 1 180 $X=109170 $Y=17920
X27 1 26 2 102 2 1 sky130_fd_sc_hd__buf_8_DigitalLDOLogic_gds $T=115800 12720 1 180 $X=110090 $Y=12480
X28 1 27 2 103 2 1 sky130_fd_sc_hd__buf_8_DigitalLDOLogic_gds $T=123620 12720 0 180 $X=117910 $Y=9760
X29 1 28 2 104 2 1 sky130_fd_sc_hd__buf_8_DigitalLDOLogic_gds $T=123620 18160 0 180 $X=117910 $Y=15200
X30 1 30 2 105 2 1 sky130_fd_sc_hd__buf_8_DigitalLDOLogic_gds $T=132820 12720 0 0 $X=132630 $Y=12480
X31 1 31 2 106 2 1 sky130_fd_sc_hd__buf_8_DigitalLDOLogic_gds $T=138340 12720 1 0 $X=138150 $Y=9760
X32 1 32 2 107 2 1 sky130_fd_sc_hd__buf_8_DigitalLDOLogic_gds $T=144780 12720 1 180 $X=139070 $Y=12480
X33 1 33 2 108 2 1 sky130_fd_sc_hd__buf_8_DigitalLDOLogic_gds $T=153060 23600 1 180 $X=147350 $Y=23360
X34 1 34 2 109 2 1 sky130_fd_sc_hd__buf_8_DigitalLDOLogic_gds $T=148460 12720 1 0 $X=148270 $Y=9760
X35 1 36 2 110 2 1 sky130_fd_sc_hd__buf_8_DigitalLDOLogic_gds $T=162260 18160 1 0 $X=162070 $Y=15200
X36 1 35 2 111 2 1 sky130_fd_sc_hd__buf_8_DigitalLDOLogic_gds $T=163180 12720 1 0 $X=162990 $Y=9760
X37 1 38 2 112 2 1 sky130_fd_sc_hd__buf_8_DigitalLDOLogic_gds $T=176980 18160 1 0 $X=176790 $Y=15200
X38 1 39 2 113 2 1 sky130_fd_sc_hd__buf_8_DigitalLDOLogic_gds $T=180200 23600 0 0 $X=180010 $Y=23360
X39 1 88 2 80 114 2 1 sky130_fd_sc_hd__dfxtp_1 $T=48180 34480 0 0 $X=47990 $Y=34240
X40 1 89 2 80 115 2 1 sky130_fd_sc_hd__dfxtp_1 $T=48640 34480 1 0 $X=48450 $Y=31520
X41 1 87 2 80 116 2 1 sky130_fd_sc_hd__dfxtp_1 $T=49560 18160 0 0 $X=49370 $Y=17920
X42 1 86 2 80 117 2 1 sky130_fd_sc_hd__dfxtp_1 $T=49560 23600 0 0 $X=49370 $Y=23360
X43 1 84 2 80 118 2 1 sky130_fd_sc_hd__dfxtp_1 $T=50020 18160 1 0 $X=49830 $Y=15200
X44 1 92 2 81 119 2 1 sky130_fd_sc_hd__dfxtp_1 $T=51400 23600 1 0 $X=51210 $Y=20640
X45 1 91 2 80 120 2 1 sky130_fd_sc_hd__dfxtp_1 $T=59220 18160 1 0 $X=59030 $Y=15200
X46 1 10 2 80 121 2 1 sky130_fd_sc_hd__dfxtp_1 $T=59220 18160 0 0 $X=59030 $Y=17920
X47 1 94 2 80 122 2 1 sky130_fd_sc_hd__dfxtp_1 $T=59220 29040 1 0 $X=59030 $Y=26080
X48 1 90 2 80 123 2 1 sky130_fd_sc_hd__dfxtp_1 $T=59220 29040 0 0 $X=59030 $Y=28800
X49 1 18 2 81 124 2 1 sky130_fd_sc_hd__dfxtp_1 $T=66120 23600 1 0 $X=65930 $Y=20640
X50 1 95 2 81 125 2 1 sky130_fd_sc_hd__dfxtp_1 $T=75320 18160 0 0 $X=75130 $Y=17920
X51 1 93 2 81 126 2 1 sky130_fd_sc_hd__dfxtp_1 $T=77160 23600 0 0 $X=76970 $Y=23360
X52 1 97 2 81 127 2 1 sky130_fd_sc_hd__dfxtp_1 $T=80840 23600 1 0 $X=80650 $Y=20640
X53 1 98 2 81 128 2 1 sky130_fd_sc_hd__dfxtp_1 $T=90960 23600 0 0 $X=90770 $Y=23360
X54 1 96 2 81 129 2 1 sky130_fd_sc_hd__dfxtp_1 $T=93720 18160 0 0 $X=93530 $Y=17920
X55 1 100 2 81 130 2 1 sky130_fd_sc_hd__dfxtp_1 $T=95560 23600 1 0 $X=95370 $Y=20640
X56 1 101 2 82 131 2 1 sky130_fd_sc_hd__dfxtp_1 $T=110280 23600 1 0 $X=110090 $Y=20640
X57 1 99 2 82 132 2 1 sky130_fd_sc_hd__dfxtp_1 $T=118100 18160 0 0 $X=117910 $Y=17920
X58 1 85 2 82 133 2 1 sky130_fd_sc_hd__dfxtp_1 $T=118100 23600 0 0 $X=117910 $Y=23360
X59 1 104 2 82 134 2 1 sky130_fd_sc_hd__dfxtp_1 $T=124540 23600 1 0 $X=124350 $Y=20640
X60 1 113 2 82 135 2 1 sky130_fd_sc_hd__dfxtp_1 $T=124540 29040 1 0 $X=124350 $Y=26080
X61 1 102 2 82 136 2 1 sky130_fd_sc_hd__dfxtp_1 $T=132820 18160 0 0 $X=132630 $Y=17920
X62 1 106 2 82 137 2 1 sky130_fd_sc_hd__dfxtp_1 $T=134660 23600 1 0 $X=134470 $Y=20640
X63 1 108 2 82 138 2 1 sky130_fd_sc_hd__dfxtp_1 $T=135120 29040 1 0 $X=134930 $Y=26080
X64 1 105 2 83 139 2 1 sky130_fd_sc_hd__dfxtp_1 $T=153060 18160 0 0 $X=152870 $Y=17920
X65 1 103 2 83 140 2 1 sky130_fd_sc_hd__dfxtp_1 $T=153520 18160 1 0 $X=153330 $Y=15200
X66 1 110 2 83 141 2 1 sky130_fd_sc_hd__dfxtp_1 $T=153520 23600 1 0 $X=153330 $Y=20640
X67 1 112 2 83 142 2 1 sky130_fd_sc_hd__dfxtp_1 $T=162260 23600 1 0 $X=162070 $Y=20640
X68 1 109 2 83 76 2 1 sky130_fd_sc_hd__dfxtp_1 $T=165480 18160 0 0 $X=165290 $Y=17920
X69 1 107 2 83 143 2 1 sky130_fd_sc_hd__dfxtp_1 $T=169160 18160 1 0 $X=168970 $Y=15200
X70 1 111 2 83 144 2 1 sky130_fd_sc_hd__dfxtp_1 $T=176980 23600 1 0 $X=176790 $Y=20640
X71 116 1 2 79 78 84 10 145 2 1 sky130_fd_sc_hd__a221o_1 $T=44500 18160 1 0 $X=44310 $Y=15200
X72 117 1 2 79 78 85 88 145 2 1 sky130_fd_sc_hd__a221o_1 $T=45880 23600 1 0 $X=45690 $Y=20640
X73 114 1 2 79 78 86 89 145 2 1 sky130_fd_sc_hd__a221o_1 $T=45880 29040 1 0 $X=45690 $Y=26080
X74 115 1 2 79 78 88 90 145 2 1 sky130_fd_sc_hd__a221o_1 $T=45880 29040 0 0 $X=45690 $Y=28800
X75 121 1 2 79 78 87 91 145 2 1 sky130_fd_sc_hd__a221o_1 $T=50480 12720 0 0 $X=50290 $Y=12480
X76 120 1 2 79 78 10 92 145 2 1 sky130_fd_sc_hd__a221o_1 $T=64280 12720 1 180 $X=60410 $Y=12480
X77 122 1 2 79 78 90 93 145 2 1 sky130_fd_sc_hd__a221o_1 $T=72100 18160 0 180 $X=68230 $Y=15200
X78 119 1 2 79 78 91 95 145 2 1 sky130_fd_sc_hd__a221o_1 $T=72100 18160 1 180 $X=68230 $Y=17920
X79 123 1 2 79 78 89 94 145 2 1 sky130_fd_sc_hd__a221o_1 $T=72100 29040 0 180 $X=68230 $Y=26080
X80 126 1 2 79 78 94 18 145 2 1 sky130_fd_sc_hd__a221o_1 $T=73940 29040 0 0 $X=73750 $Y=28800
X81 127 1 2 79 78 18 98 145 2 1 sky130_fd_sc_hd__a221o_1 $T=80380 29040 0 0 $X=80190 $Y=28800
X82 125 1 2 79 78 92 96 145 2 1 sky130_fd_sc_hd__a221o_1 $T=84980 18160 0 180 $X=81110 $Y=15200
X83 124 1 2 79 78 93 97 145 2 1 sky130_fd_sc_hd__a221o_1 $T=82680 18160 0 0 $X=82490 $Y=17920
X84 128 1 2 79 78 97 99 145 2 1 sky130_fd_sc_hd__a221o_1 $T=92800 12720 0 0 $X=92610 $Y=12480
X85 130 1 2 79 78 96 101 145 2 1 sky130_fd_sc_hd__a221o_1 $T=93720 29040 0 0 $X=93530 $Y=28800
X86 129 1 2 79 78 95 100 145 2 1 sky130_fd_sc_hd__a221o_1 $T=98320 18160 0 180 $X=94450 $Y=15200
X87 131 1 2 79 78 100 104 145 2 1 sky130_fd_sc_hd__a221o_1 $T=111200 18160 1 0 $X=111010 $Y=15200
X88 133 1 2 79 78 113 86 145 2 1 sky130_fd_sc_hd__a221o_1 $T=112580 23600 0 0 $X=112390 $Y=23360
X89 132 1 2 79 78 98 102 145 2 1 sky130_fd_sc_hd__a221o_1 $T=118100 12720 0 0 $X=117910 $Y=12480
X90 135 1 2 79 78 112 85 145 2 1 sky130_fd_sc_hd__a221o_1 $T=119480 29040 1 0 $X=119290 $Y=26080
X91 134 1 2 79 78 101 106 145 2 1 sky130_fd_sc_hd__a221o_1 $T=119480 29040 0 0 $X=119290 $Y=28800
X92 136 1 2 79 78 99 103 145 2 1 sky130_fd_sc_hd__a221o_1 $T=125460 18160 1 0 $X=125270 $Y=15200
X93 140 1 2 79 78 102 105 145 2 1 sky130_fd_sc_hd__a221o_1 $T=134660 18160 1 0 $X=134470 $Y=15200