* +++++++++++++++++++++++++++++++++++++++++++++++++++++++++ *
* CDL Netlist:                                              *
*                                                           *
* Cell Name  : DigitalLDOLogic                              *
* Netlisted  : Wed Jan 29 01:01:39 2025                     *
* Pegasus Version: 22.14-s007 Tue Jan 31 16:35:56 PST 2023  *
* +++++++++++++++++++++++++++++++++++++++++++++++++++++++++ *
*.LDD
*.DEVTMPLT 0 MN(nfet_01v8) nfet_01v8_rec nSourceDrain(D) nfet(G) nSourceDrain(S) pwell(B)
*.DEVTMPLT 1 MP(pfet_01v8_hvt) hvtpfet_01v8_rec pSourceDrain(D) hvtpfet(G) pSourceDrain(s) nwell(B)

* +++++++++++++++++++++++++++++++++++++++++++++++++++++++++ *
* Sub cell: sky130_fd_sc_hd__dlygate4sd2_1                  *
* +++++++++++++++++++++++++++++++++++++++++++++++++++++++++ *
.subckt sky130_fd_sc_hd__dlygate4sd2_1 1 2 3 4 5 6
** N=9 EP=6 FDC=8
M0 3 4 7 5 nfet_01v8 L=1.5e-07 W=4.2e-07 $X=505 $Y=235 $dt=0
M1 8 7 3 5 nfet_01v8 L=1.8e-07 W=4.2e-07 $X=925 $Y=235 $dt=0
M2 3 8 9 5 nfet_01v8 L=1.8e-07 W=4.2e-07 $X=1895 $Y=235 $dt=0
M3 2 9 3 5 nfet_01v8 L=1.5e-07 W=6.5e-07 $X=2400 $Y=235 $dt=0
M4 1 4 7 6 pfet_01v8_hvt L=1.5e-07 W=4.2e-07 $X=505 $Y=2065 $dt=1
M5 8 7 1 6 pfet_01v8_hvt L=1.8e-07 W=4.2e-07 $X=925 $Y=2065 $dt=1
M6 1 8 9 6 pfet_01v8_hvt L=1.8e-07 W=4.2e-07 $X=1895 $Y=2065 $dt=1
M7 2 9 1 6 pfet_01v8_hvt L=1.5e-07 W=1e-06 $X=2400 $Y=1485 $dt=1
.ends sky130_fd_sc_hd__dlygate4sd2_1

* +++++++++++++++++++++++++++++++++++++++++++++++++++++++++ *
* Sub cell: sky130_fd_sc_hd__clkbuf_2                       *
* +++++++++++++++++++++++++++++++++++++++++++++++++++++++++ *
.subckt sky130_fd_sc_hd__clkbuf_2 1 2 3 4 5 6
** N=7 EP=6 FDC=6
M0 3 4 7 5 nfet_01v8 L=1.5e-07 W=4.2e-07 $X=400 $Y=235 $dt=0
M1 2 7 3 5 nfet_01v8 L=1.5e-07 W=4.2e-07 $X=875 $Y=235 $dt=0
M2 3 7 2 5 nfet_01v8 L=1.5e-07 W=4.2e-07 $X=1295 $Y=235 $dt=0
M3 1 4 7 6 pfet_01v8_hvt L=1.5e-07 W=1e-06 $X=400 $Y=1485 $dt=1
M4 2 7 1 6 pfet_01v8_hvt L=1.5e-07 W=1e-06 $X=875 $Y=1485 $dt=1
M5 1 7 2 6 pfet_01v8_hvt L=1.5e-07 W=1e-06 $X=1295 $Y=1485 $dt=1
.ends sky130_fd_sc_hd__clkbuf_2

* +++++++++++++++++++++++++++++++++++++++++++++++++++++++++ *
* Sub cell: sky130_fd_sc_hd__clkbuf_1                       *
* +++++++++++++++++++++++++++++++++++++++++++++++++++++++++ *
.subckt sky130_fd_sc_hd__clkbuf_1 1 2 3 4 5 6
** N=7 EP=6 FDC=4
M0 3 7 1 5 nfet_01v8 L=1.5e-07 W=5.2e-07 $X=395 $Y=235 $dt=0
M1 7 4 3 5 nfet_01v8 L=1.5e-07 W=5.2e-07 $X=835 $Y=235 $dt=0
M2 2 7 1 6 pfet_01v8_hvt L=1.5e-07 W=7.9e-07 $X=395 $Y=1695 $dt=1
M3 7 4 2 6 pfet_01v8_hvt L=1.5e-07 W=7.9e-07 $X=835 $Y=1695 $dt=1
.ends sky130_fd_sc_hd__clkbuf_1

* +++++++++++++++++++++++++++++++++++++++++++++++++++++++++ *
* Sub cell: sky130_fd_sc_hd__buf_8                          *
* +++++++++++++++++++++++++++++++++++++++++++++++++++++++++ *
.subckt sky130_fd_sc_hd__buf_8 1 2 3 4 5 6
** N=7 EP=6 FDC=22
M0 3 4 7 5 nfet_01v8 L=1.5e-07 W=6.5e-07 $X=395 $Y=235 $dt=0
M1 7 4 3 5 nfet_01v8 L=1.5e-07 W=6.5e-07 $X=815 $Y=235 $dt=0
M2 3 4 7 5 nfet_01v8 L=1.5e-07 W=6.5e-07 $X=1235 $Y=235 $dt=0
M3 2 7 3 5 nfet_01v8 L=1.5e-07 W=6.5e-07 $X=1655 $Y=235 $dt=0
M4 3 7 2 5 nfet_01v8 L=1.5e-07 W=6.5e-07 $X=2075 $Y=235 $dt=0
M5 2 7 3 5 nfet_01v8 L=1.5e-07 W=6.5e-07 $X=2495 $Y=235 $dt=0
M6 3 7 2 5 nfet_01v8 L=1.5e-07 W=6.5e-07 $X=2915 $Y=235 $dt=0
M7 2 7 3 5 nfet_01v8 L=1.5e-07 W=6.5e-07 $X=3335 $Y=235 $dt=0
M8 3 7 2 5 nfet_01v8 L=1.5e-07 W=6.5e-07 $X=3755 $Y=235 $dt=0
M9 2 7 3 5 nfet_01v8 L=1.5e-07 W=6.5e-07 $X=4175 $Y=235 $dt=0
M10 3 7 2 5 nfet_01v8 L=1.5e-07 W=6.5e-07 $X=4595 $Y=235 $dt=0
M11 1 4 7 6 pfet_01v8_hvt L=1.5e-07 W=1e-06 $X=395 $Y=1485 $dt=1
M12 7 4 1 6 pfet_01v8_hvt L=1.5e-07 W=1e-06 $X=815 $Y=1485 $dt=1
M13 1 4 7 6 pfet_01v8_hvt L=1.5e-07 W=1e-06 $X=1235 $Y=1485 $dt=1
M14 2 7 1 6 pfet_01v8_hvt L=1.5e-07 W=1e-06 $X=1655 $Y=1485 $dt=1
M15 1 7 2 6 pfet_01v8_hvt L=1.5e-07 W=1e-06 $X=2075 $Y=1485 $dt=1
M16 2 7 1 6 pfet_01v8_hvt L=1.5e-07 W=1e-06 $X=2495 $Y=1485 $dt=1
M17 1 7 2 6 pfet_01v8_hvt L=1.5e-07 W=1e-06 $X=2915 $Y=1485 $dt=1
M18 2 7 1 6 pfet_01v8_hvt L=1.5e-07 W=1e-06 $X=3335 $Y=1485 $dt=1
M19 1 7 2 6 pfet_01v8_hvt L=1.5e-07 W=1e-06 $X=3755 $Y=1485 $dt=1
M20 2 7 1 6 pfet_01v8_hvt L=1.5e-07 W=1e-06 $X=4175 $Y=1485 $dt=1
M21 1 7 2 6 pfet_01v8_hvt L=1.5e-07 W=1e-06 $X=4595 $Y=1485 $dt=1
.ends sky130_fd_sc_hd__buf_8

* +++++++++++++++++++++++++++++++++++++++++++++++++++++++++ *
* Sub cell: sky130_fd_sc_hd__dfxtp_1                        *
* +++++++++++++++++++++++++++++++++++++++++++++++++++++++++ *
.subckt sky130_fd_sc_hd__dfxtp_1 1 2 3 4 5 6 7
** N=22 EP=7 FDC=24
M0 3 4 9 6 nfet_01v8 L=1.5e-07 W=4.2e-07 $X=395 $Y=235 $dt=0
M1 8 9 3 6 nfet_01v8 L=1.5e-07 W=4.2e-07 $X=815 $Y=235 $dt=0
M2 10 5 3 6 nfet_01v8 L=1.5e-07 W=4.2e-07 $X=1755 $Y=235 $dt=0
M3 11 9 10 6 nfet_01v8 L=1.5e-07 W=3.6e-07 $X=2315 $Y=235 $dt=0
M4 17 8 11 6 nfet_01v8 L=1.5e-07 W=3.6e-07 $X=2810 $Y=235 $dt=0
M5 3 12 17 6 nfet_01v8 L=1.5e-07 W=4.2e-07 $X=3305 $Y=235 $dt=0
M6 12 11 3 6 nfet_01v8 L=1.5e-07 W=6.4e-07 $X=3900 $Y=235 $dt=0
M7 13 8 12 6 nfet_01v8 L=1.5e-07 W=3.6e-07 $X=4405 $Y=235 $dt=0
M8 18 9 13 6 nfet_01v8 L=1.5e-07 W=3.6e-07 $X=4935 $Y=235 $dt=0
M9 3 14 18 6 nfet_01v8 L=1.5e-07 W=4.2e-07 $X=5410 $Y=235 $dt=0
M10 3 13 14 6 nfet_01v8 L=1.5e-07 W=6.5e-07 $X=6355 $Y=235 $dt=0
M11 2 14 3 6 nfet_01v8 L=1.5e-07 W=6.5e-07 $X=6775 $Y=235 $dt=0
M12 1 4 9 7 pfet_01v8_hvt L=1.5e-07 W=6.4e-07 $X=395 $Y=1815 $dt=1
M13 8 9 1 7 pfet_01v8_hvt L=1.5e-07 W=6.4e-07 $X=815 $Y=1815 $dt=1
M14 10 5 1 7 pfet_01v8_hvt L=1.5e-07 W=4.2e-07 $X=1755 $Y=2065 $dt=1
M15 11 8 10 7 pfet_01v8_hvt L=1.5e-07 W=4.2e-07 $X=2180 $Y=2065 $dt=1
M16 15 9 11 7 pfet_01v8_hvt L=1.5e-07 W=4.2e-07 $X=2655 $Y=2065 $dt=1
M17 1 12 15 7 pfet_01v8_hvt L=1.5e-07 W=4.2e-07 $X=3170 $Y=2065 $dt=1
M18 12 11 1 7 pfet_01v8_hvt L=1.5e-07 W=7.5e-07 $X=3830 $Y=1735 $dt=1
M19 13 9 12 7 pfet_01v8_hvt L=1.5e-07 W=4.2e-07 $X=4305 $Y=2065 $dt=1
M20 16 8 13 7 pfet_01v8_hvt L=1.5e-07 W=4.2e-07 $X=4725 $Y=2065 $dt=1
M21 1 14 16 7 pfet_01v8_hvt L=1.5e-07 W=4.2e-07 $X=5295 $Y=2065 $dt=1
M22 1 13 14 7 pfet_01v8_hvt L=1.5e-07 W=1e-06 $X=6345 $Y=1485 $dt=1
M23 2 14 1 7 pfet_01v8_hvt L=1.5e-07 W=1e-06 $X=6765 $Y=1485 $dt=1
.ends sky130_fd_sc_hd__dfxtp_1

* +++++++++++++++++++++++++++++++++++++++++++++++++++++++++ *
* Sub cell: sky130_fd_sc_hd__a221o_1                        *
* +++++++++++++++++++++++++++++++++++++++++++++++++++++++++ *
.subckt sky130_fd_sc_hd__a221o_1 1 2 3 4 5 6 7 8 9 10
** N=17 EP=10 FDC=12
M0 3 4 13 9 nfet_01v8 L=1.5e-07 W=6.5e-07 $X=395 $Y=235 $dt=0
M1 14 5 3 9 nfet_01v8 L=1.5e-07 W=6.5e-07 $X=875 $Y=235 $dt=0
M2 13 6 14 9 nfet_01v8 L=1.5e-07 W=6.5e-07 $X=1235 $Y=235 $dt=0
M3 15 7 13 9 nfet_01v8 L=1.5e-07 W=6.5e-07 $X=2175 $Y=235 $dt=0
M4 3 8 15 9 nfet_01v8 L=1.5e-07 W=6.5e-07 $X=2655 $Y=235 $dt=0
M5 1 13 3 9 nfet_01v8 L=1.5e-07 W=6.5e-07 $X=3120 $Y=235 $dt=0
M6 11 4 13 10 pfet_01v8_hvt L=1.5e-07 W=1e-06 $X=395 $Y=1485 $dt=1
M7 12 5 11 10 pfet_01v8_hvt L=1.5e-07 W=1e-06 $X=815 $Y=1485 $dt=1
M8 11 6 12 10 pfet_01v8_hvt L=1.5e-07 W=1e-06 $X=1235 $Y=1485 $dt=1
M9 12 7 2 10 pfet_01v8_hvt L=1.5e-07 W=1e-06 $X=2175 $Y=1485 $dt=1
M10 2 8 12 10 pfet_01v8_hvt L=1.5e-07 W=1e-06 $X=2655 $Y=1485 $dt=1
M11 1 13 2 10 pfet_01v8_hvt L=1.5e-07 W=1e-06 $X=3120 $Y=1485 $dt=1
.ends sky130_fd_sc_hd__a221o_1

* +++++++++++++++++++++++++++++++++++++++++++++++++++++++++ *
* Sub cell: sky130_fd_sc_hd__a21o_1                         *
* +++++++++++++++++++++++++++++++++++++++++++++++++++++++++ *
.subckt sky130_fd_sc_hd__a21o_1 1 2 3 4 5 6 7 8
** N=12 EP=8 FDC=8
M0 3 9 1 7 nfet_01v8 L=1.5e-07 W=6.5e-07 $X=405 $Y=235 $dt=0
M1 9 4 3 7 nfet_01v8 L=1.5e-07 W=6.5e-07 $X=1345 $Y=235 $dt=0
M2 11 5 9 7 nfet_01v8 L=1.5e-07 W=6.5e-07 $X=1770 $Y=235 $dt=0
M3 3 6 11 7 nfet_01v8 L=1.5e-07 W=6.5e-07 $X=2200 $Y=235 $dt=0
M4 2 9 1 8 pfet_01v8_hvt L=1.5e-07 W=1e-06 $X=405 $Y=1485 $dt=1
M5 10 4 9 8 pfet_01v8_hvt L=1.5e-07 W=1e-06 $X=1345 $Y=1485 $dt=1
M6 2 5 10 8 pfet_01v8_hvt L=1.5e-07 W=1e-06 $X=1770 $Y=1485 $dt=1
M7 10 6 2 8 pfet_01v8_hvt L=1.5e-07 W=1e-06 $X=2200 $Y=1485 $dt=1
.ends sky130_fd_sc_hd__a21o_1

* +++++++++++++++++++++++++++++++++++++++++++++++++++++++++ *
* Sub cell: sky130_fd_sc_hd__or3_1                          *
* +++++++++++++++++++++++++++++++++++++++++++++++++++++++++ *
.subckt sky130_fd_sc_hd__or3_1 1 2 3 4 5 6 7 8
** N=13 EP=8 FDC=8
M0 3 4 9 7 nfet_01v8 L=1.5e-07 W=4.2e-07 $X=405 $Y=265 $dt=0
M1 9 5 3 7 nfet_01v8 L=1.5e-07 W=4.2e-07 $X=825 $Y=265 $dt=0
M2 3 6 9 7 nfet_01v8 L=1.5e-07 W=4.2e-07 $X=1245 $Y=265 $dt=0
M3 2 9 3 7 nfet_01v8 L=1.5e-07 W=6.5e-07 $X=1735 $Y=235 $dt=0
M4 10 4 9 8 pfet_01v8_hvt L=1.5e-07 W=4.2e-07 $X=405 $Y=1485 $dt=1
M5 11 5 10 8 pfet_01v8_hvt L=1.5e-07 W=4.2e-07 $X=765 $Y=1485 $dt=1
M6 1 6 11 8 pfet_01v8_hvt L=1.5e-07 W=4.2e-07 $X=1245 $Y=1485 $dt=1
M7 2 9 1 8 pfet_01v8_hvt L=1.5e-07 W=1e-06 $X=1735 $Y=1485 $dt=1
.ends sky130_fd_sc_hd__or3_1

* +++++++++++++++++++++++++++++++++++++++++++++++++++++++++ *
* Sub cell: sky130_fd_sc_hd__inv_2                          *
* +++++++++++++++++++++++++++++++++++++++++++++++++++++++++ *
.subckt sky130_fd_sc_hd__inv_2 1 2 3 4 5 6
** N=6 EP=6 FDC=4
M0 2 4 3 5 nfet_01v8 L=1.5e-07 W=6.5e-07 $X=405 $Y=235 $dt=0
M1 3 4 2 5 nfet_01v8 L=1.5e-07 W=6.5e-07 $X=825 $Y=235 $dt=0
M2 2 4 1 6 pfet_01v8_hvt L=1.5e-07 W=1e-06 $X=405 $Y=1485 $dt=1
M3 1 4 2 6 pfet_01v8_hvt L=1.5e-07 W=1e-06 $X=825 $Y=1485 $dt=1
.ends sky130_fd_sc_hd__inv_2

* +++++++++++++++++++++++++++++++++++++++++++++++++++++++++ *
* Sub cell: sky130_fd_sc_hd__tap_1                          *
* +++++++++++++++++++++++++++++++++++++++++++++++++++++++++ *
.subckt sky130_fd_sc_hd__tap_1 1 2 3 4
** N=4 EP=4 FDC=0
.ends sky130_fd_sc_hd__tap_1

* +++++++++++++++++++++++++++++++++++++++++++++++++++++++++ *
* Sub cell: sky130_fd_sc_hd__tapvpwrvgnd_1                  *
* +++++++++++++++++++++++++++++++++++++++++++++++++++++++++ *
.subckt sky130_fd_sc_hd__tapvpwrvgnd_1 1 2
** N=2 EP=2 FDC=0
.ends sky130_fd_sc_hd__tapvpwrvgnd_1

* +++++++++++++++++++++++++++++++++++++++++++++++++++++++++ *
* Sub cell: sky130_fd_sc_hd__decap_6                        *
* +++++++++++++++++++++++++++++++++++++++++++++++++++++++++ *
.subckt sky130_fd_sc_hd__decap_6 1 2 3 4
** N=4 EP=4 FDC=2
M0 2 1 2 3 nfet_01v8 L=1.97e-06 W=5.5e-07 $X=395 $Y=235 $dt=0
M1 1 2 1 4 pfet_01v8_hvt L=1.97e-06 W=8.7e-07 $X=395 $Y=1615 $dt=1
.ends sky130_fd_sc_hd__decap_6

* +++++++++++++++++++++++++++++++++++++++++++++++++++++++++ *
* Sub cell: sky130_fd_sc_hd__decap_3                        *
* +++++++++++++++++++++++++++++++++++++++++++++++++++++++++ *
.subckt sky130_fd_sc_hd__decap_3 1 2 3 4
** N=4 EP=4 FDC=2
M0 2 1 2 3 nfet_01v8 L=5.9e-07 W=5.5e-07 $X=395 $Y=235 $dt=0
M1 1 2 1 4 pfet_01v8_hvt L=5.9e-07 W=8.7e-07 $X=395 $Y=1615 $dt=1
.ends sky130_fd_sc_hd__decap_3

* +++++++++++++++++++++++++++++++++++++++++++++++++++++++++ *
* Sub cell: sky130_fd_sc_hd__decap_12                       *
* +++++++++++++++++++++++++++++++++++++++++++++++++++++++++ *
.subckt sky130_fd_sc_hd__decap_12 1 2 3 4
** N=4 EP=4 FDC=2
M0 2 1 2 3 nfet_01v8 L=4.73e-06 W=5.5e-07 $X=395 $Y=235 $dt=0
M1 1 2 1 4 pfet_01v8_hvt L=4.73e-06 W=8.7e-07 $X=395 $Y=1615 $dt=1
.ends sky130_fd_sc_hd__decap_12

* +++++++++++++++++++++++++++++++++++++++++++++++++++++++++ *
* Sub cell: sky130_fd_sc_hd__decap_4                        *
* +++++++++++++++++++++++++++++++++++++++++++++++++++++++++ *
.subckt sky130_fd_sc_hd__decap_4 1 2 3 4
** N=4 EP=4 FDC=2
M0 2 1 2 3 nfet_01v8 L=1.05e-06 W=5.5e-07 $X=395 $Y=235 $dt=0
M1 1 2 1 4 pfet_01v8_hvt L=1.05e-06 W=8.7e-07 $X=395 $Y=1615 $dt=1
.ends sky130_fd_sc_hd__decap_4

* +++++++++++++++++++++++++++++++++++++++++++++++++++++++++ *
* Sub cell: sky130_fd_sc_hd__decap_8                        *
* +++++++++++++++++++++++++++++++++++++++++++++++++++++++++ *
.subckt sky130_fd_sc_hd__decap_8 1 2 3 4
** N=4 EP=4 FDC=2
M0 2 1 2 3 nfet_01v8 L=2.89e-06 W=5.5e-07 $X=395 $Y=235 $dt=0
M1 1 2 1 4 pfet_01v8_hvt L=2.89e-06 W=8.7e-07 $X=395 $Y=1615 $dt=1
.ends sky130_fd_sc_hd__decap_8

* +++++++++++++++++++++++++++++++++++++++++++++++++++++++++ *
* Sub cell: sky130_fd_sc_hd__fill_1                         *
* +++++++++++++++++++++++++++++++++++++++++++++++++++++++++ *
.subckt sky130_fd_sc_hd__fill_1 1 2 3 4
** N=4 EP=4 FDC=0
.ends sky130_fd_sc_hd__fill_1

* +++++++++++++++++++++++++++++++++++++++++++++++++++++++++ *
* Sub cell: sky130_fd_sc_hd__fill_2                         *
* +++++++++++++++++++++++++++++++++++++++++++++++++++++++++ *
.subckt sky130_fd_sc_hd__fill_2 1 2 3 4
** N=4 EP=4 FDC=0
.ends sky130_fd_sc_hd__fill_2

* +++++++++++++++++++++++++++++++++++++++++++++++++++++++++ *
* Sub cell: L1M1_PR                                         *
* +++++++++++++++++++++++++++++++++++++++++++++++++++++++++ *
.subckt L1M1_PR 1
** N=1 EP=1 FDC=0
.ends L1M1_PR

* +++++++++++++++++++++++++++++++++++++++++++++++++++++++++ *
* Sub cell: M1M2_PR_M                                       *
* +++++++++++++++++++++++++++++++++++++++++++++++++++++++++ *
.subckt M1M2_PR_M 1
** N=1 EP=1 FDC=0
.ends M1M2_PR_M

* +++++++++++++++++++++++++++++++++++++++++++++++++++++++++ *
* Sub cell: M1M2_PR                                         *
* +++++++++++++++++++++++++++++++++++++++++++++++++++++++++ *
.subckt M1M2_PR 1
** N=1 EP=1 FDC=0
.ends M1M2_PR

* +++++++++++++++++++++++++++++++++++++++++++++++++++++++++ *
* Sub cell: M2M3_PR                                         *
* +++++++++++++++++++++++++++++++++++++++++++++++++++++++++ *
.subckt M2M3_PR 1
** N=1 EP=1 FDC=0
.ends M2M3_PR

* +++++++++++++++++++++++++++++++++++++++++++++++++++++++++ *
* Sub cell: M3M4_PR                                         *
* +++++++++++++++++++++++++++++++++++++++++++++++++++++++++ *
.subckt M3M4_PR 1
** N=1 EP=1 FDC=0
.ends M3M4_PR

* +++++++++++++++++++++++++++++++++++++++++++++++++++++++++ *
* Sub cell: DigitalLDOLogic_VIA0                            *
* +++++++++++++++++++++++++++++++++++++++++++++++++++++++++ *
.subckt DigitalLDOLogic_VIA0 1
** N=1 EP=1 FDC=0
.ends DigitalLDOLogic_VIA0

* +++++++++++++++++++++++++++++++++++++++++++++++++++++++++ *
* Sub cell: DigitalLDOLogic_VIA1                            *
* +++++++++++++++++++++++++++++++++++++++++++++++++++++++++ *
.subckt DigitalLDOLogic_VIA1 1
** N=1 EP=1 FDC=0
.ends DigitalLDOLogic_VIA1

* +++++++++++++++++++++++++++++++++++++++++++++++++++++++++ *
* Sub cell: DigitalLDOLogic_VIA2                            *
* +++++++++++++++++++++++++++++++++++++++++++++++++++++++++ *
.subckt DigitalLDOLogic_VIA2 1
** N=1 EP=1 FDC=0
.ends DigitalLDOLogic_VIA2

* +++++++++++++++++++++++++++++++++++++++++++++++++++++++++ *
* Sub cell: DigitalLDOLogic_VIA3                            *
* +++++++++++++++++++++++++++++++++++++++++++++++++++++++++ *
.subckt DigitalLDOLogic_VIA3 1
** N=1 EP=1 FDC=0
.ends DigitalLDOLogic_VIA3

* +++++++++++++++++++++++++++++++++++++++++++++++++++++++++ *
* Sub cell: DigitalLDOLogic_VIA4                            *
* +++++++++++++++++++++++++++++++++++++++++++++++++++++++++ *
.subckt DigitalLDOLogic_VIA4 1
** N=1 EP=1 FDC=0
.ends DigitalLDOLogic_VIA4

* +++++++++++++++++++++++++++++++++++++++++++++++++++++++++ *
* Sub cell: MASCO__Y1                                       *
* +++++++++++++++++++++++++++++++++++++++++++++++++++++++++ *
.subckt MASCO__Y1 1 2
** N=2 EP=2 FDC=0
X0 1 DigitalLDOLogic_VIA3 $T=710 1000 0 0 $X=0 $Y=0
X1 1 DigitalLDOLogic_VIA3 $T=6230 1000 0 0 $X=5520 $Y=0
X2 1 DigitalLDOLogic_VIA3 $T=11750 1000 0 0 $X=11040 $Y=0
X3 1 DigitalLDOLogic_VIA3 $T=17270 1000 0 0 $X=16560 $Y=0
X4 1 DigitalLDOLogic_VIA3 $T=22790 1000 0 0 $X=22080 $Y=0
X5 1 DigitalLDOLogic_VIA3 $T=28310 1000 0 0 $X=27600 $Y=0
X6 1 DigitalLDOLogic_VIA3 $T=33830 1000 0 0 $X=33120 $Y=0
X7 1 DigitalLDOLogic_VIA3 $T=39350 1000 0 0 $X=38640 $Y=0
.ends MASCO__Y1

* +++++++++++++++++++++++++++++++++++++++++++++++++++++++++ *
* Sub cell: MASCO__B19                                      *
* +++++++++++++++++++++++++++++++++++++++++++++++++++++++++ *
.subckt MASCO__B19 1 2
** N=2 EP=2 FDC=4
X0 1 2 sky130_fd_sc_hd__tapvpwrvgnd_1 $T=190 2960 1 0 $X=0 $Y=0
X1 1 2 sky130_fd_sc_hd__tapvpwrvgnd_1 $T=190 2960 0 0 $X=0 $Y=2720
X2 1 2 2 1 sky130_fd_sc_hd__decap_12 $T=650 2960 1 0 $X=460 $Y=0
X3 1 2 2 1 sky130_fd_sc_hd__decap_12 $T=650 2960 0 0 $X=460 $Y=2720
.ends MASCO__B19

* +++++++++++++++++++++++++++++++++++++++++++++++++++++++++ *
* Sub cell: MASCO__B22                                      *
* +++++++++++++++++++++++++++++++++++++++++++++++++++++++++ *
.subckt MASCO__B22 1 2
** N=2 EP=2 FDC=8
X0 1 2 2 1 sky130_fd_sc_hd__decap_3 $T=2030 2960 1 0 $X=1840 $Y=0
X1 1 2 2 1 sky130_fd_sc_hd__decap_3 $T=2030 2960 0 0 $X=1840 $Y=2720
X2 1 2 2 1 sky130_fd_sc_hd__decap_4 $T=190 2960 1 0 $X=0 $Y=0
X3 1 2 2 1 sky130_fd_sc_hd__decap_4 $T=190 2960 0 0 $X=0 $Y=2720
.ends MASCO__B22

* +++++++++++++++++++++++++++++++++++++++++++++++++++++++++ *
* Sub cell: MASCO__B26                                      *
* +++++++++++++++++++++++++++++++++++++++++++++++++++++++++ *
.subckt MASCO__B26 1 2
** N=2 EP=2 FDC=4
X0 1 2 sky130_fd_sc_hd__tapvpwrvgnd_1 $T=1570 2960 1 0 $X=1380 $Y=0
X1 1 2 sky130_fd_sc_hd__tapvpwrvgnd_1 $T=1570 2960 0 0 $X=1380 $Y=2720
X2 1 2 2 1 sky130_fd_sc_hd__decap_3 $T=190 2960 1 0 $X=0 $Y=0
X3 1 2 2 1 sky130_fd_sc_hd__decap_3 $T=190 2960 0 0 $X=0 $Y=2720
.ends MASCO__B26

* +++++++++++++++++++++++++++++++++++++++++++++++++++++++++ *
* Sub cell: DigitalLDOLogic                                 *
* +++++++++++++++++++++++++++++++++++++++++++++++++++++++++ *
.subckt DigitalLDOLogic 52 26 66 40 1 14 54 28 16 42
+ 3 68 56 30 44 18 70 58 32 6
+ 72 46 20 60 34 8 22 74 48 36
+ 62 10 50 76 24 38 64
** N=181 EP=37 FDC=3456
X0 1 2 3 4 3 1 sky130_fd_sc_hd__dlygate4sd2_1 $T=162260 18160 0 0 $X=162070 $Y=17920
X1 1 5 3 6 3 1 sky130_fd_sc_hd__clkbuf_2 $T=171460 23600 1 0 $X=171270 $Y=20640
X2 1 7 3 8 3 1 sky130_fd_sc_hd__clkbuf_2 $T=172840 18160 0 0 $X=172650 $Y=17920
X3 9 1 3 10 3 1 sky130_fd_sc_hd__clkbuf_1 $T=60140 23600 1 0 $X=59950 $Y=20640
X4 11 1 3 10 3 1 sky130_fd_sc_hd__clkbuf_1 $T=80840 23600 0 180 $X=79270 $Y=20640
X5 12 1 3 10 3 1 sky130_fd_sc_hd__clkbuf_1 $T=134660 23600 0 180 $X=133090 $Y=20640
X6 13 1 3 10 3 1 sky130_fd_sc_hd__clkbuf_1 $T=171460 23600 0 180 $X=169890 $Y=20640
X7 1 14 3 15 3 1 sky130_fd_sc_hd__buf_8 $T=19200 12720 0 0 $X=19010 $Y=12480
X8 1 16 3 17 3 1 sky130_fd_sc_hd__buf_8 $T=19200 18160 1 0 $X=19010 $Y=15200
X9 1 18 3 19 3 1 sky130_fd_sc_hd__buf_8 $T=21040 23600 0 0 $X=20850 $Y=23360
X10 1 20 3 21 3 1 sky130_fd_sc_hd__buf_8 $T=29780 12720 1 0 $X=29590 $Y=9760
X11 1 22 3 23 3 1 sky130_fd_sc_hd__buf_8 $T=29780 18160 1 0 $X=29590 $Y=15200
X12 1 24 3 25 3 1 sky130_fd_sc_hd__buf_8 $T=38060 12720 1 180 $X=32350 $Y=12480
X13 1 26 3 27 3 1 sky130_fd_sc_hd__buf_8 $T=40820 29040 0 180 $X=35110 $Y=26080
X14 1 28 3 29 3 1 sky130_fd_sc_hd__buf_8 $T=41280 18160 0 180 $X=35570 $Y=15200
X15 1 30 3 31 3 1 sky130_fd_sc_hd__buf_8 $T=47720 12720 1 0 $X=47530 $Y=9760
X16 1 32 3 33 3 1 sky130_fd_sc_hd__buf_8 $T=62440 12720 1 0 $X=62250 $Y=9760
X17 1 34 3 35 3 1 sky130_fd_sc_hd__buf_8 $T=65660 12720 0 0 $X=65470 $Y=12480
X18 1 36 3 37 3 1 sky130_fd_sc_hd__buf_8 $T=65660 23600 0 0 $X=65470 $Y=23360
X19 1 38 3 39 3 1 sky130_fd_sc_hd__buf_8 $T=73940 12720 1 0 $X=73750 $Y=9760
X20 1 40 3 41 3 1 sky130_fd_sc_hd__buf_8 $T=73940 18160 1 0 $X=73750 $Y=15200
X21 1 42 3 43 3 1 sky130_fd_sc_hd__buf_8 $T=82680 12720 1 0 $X=82490 $Y=9760
X22 1 44 3 45 3 1 sky130_fd_sc_hd__buf_8 $T=91420 12720 1 0 $X=91230 $Y=9760
X23 1 46 3 47 3 1 sky130_fd_sc_hd__buf_8 $T=97400 12720 1 0 $X=97210 $Y=9760
X24 1 48 3 49 3 1 sky130_fd_sc_hd__buf_8 $T=103380 12720 0 0 $X=103190 $Y=12480
X25 1 50 3 51 3 1 sky130_fd_sc_hd__buf_8 $T=103380 18160 1 0 $X=103190 $Y=15200
X26 1 52 3 53 3 1 sky130_fd_sc_hd__buf_8 $T=114880 18160 1 180 $X=109170 $Y=17920
X27 1 54 3 55 3 1 sky130_fd_sc_hd__buf_8 $T=115800 12720 1 180 $X=110090 $Y=12480
X28 1 56 3 57 3 1 sky130_fd_sc_hd__buf_8 $T=123620 12720 0 180 $X=117910 $Y=9760
X29 1 58 3 59 3 1 sky130_fd_sc_hd__buf_8 $T=123620 18160 0 180 $X=117910 $Y=15200
X30 1 60 3 61 3 1 sky130_fd_sc_hd__buf_8 $T=132820 12720 0 0 $X=132630 $Y=12480
X31 1 62 3 63 3 1 sky130_fd_sc_hd__buf_8 $T=138340 12720 1 0 $X=138150 $Y=9760
X32 1 64 3 65 3 1 sky130_fd_sc_hd__buf_8 $T=144780 12720 1 180 $X=139070 $Y=12480
X33 1 66 3 67 3 1 sky130_fd_sc_hd__buf_8 $T=153060 23600 1 180 $X=147350 $Y=23360
X34 1 68 3 69 3 1 sky130_fd_sc_hd__buf_8 $T=148460 12720 1 0 $X=148270 $Y=9760
X35 1 70 3 71 3 1 sky130_fd_sc_hd__buf_8 $T=162260 18160 1 0 $X=162070 $Y=15200
X36 1 72 3 73 3 1 sky130_fd_sc_hd__buf_8 $T=163180 12720 1 0 $X=162990 $Y=9760
X37 1 74 3 75 3 1 sky130_fd_sc_hd__buf_8 $T=176980 18160 1 0 $X=176790 $Y=15200
X38 1 76 3 77 3 1 sky130_fd_sc_hd__buf_8 $T=180200 23600 0 0 $X=180010 $Y=23360
X39 1 23 3 9 78 3 1 sky130_fd_sc_hd__dfxtp_1 $T=48180 34480 0 0 $X=47990 $Y=34240
X40 1 27 3 9 79 3 1 sky130_fd_sc_hd__dfxtp_1 $T=48640 34480 1 0 $X=48450 $Y=31520
X41 1 21 3 9 80 3 1 sky130_fd_sc_hd__dfxtp_1 $T=49560 18160 0 0 $X=49370 $Y=17920
X42 1 19 3 9 81 3 1 sky130_fd_sc_hd__dfxtp_1 $T=49560 23600 0 0 $X=49370 $Y=23360
X43 1 15 3 9 82 3 1 sky130_fd_sc_hd__dfxtp_1 $T=50020 18160 1 0 $X=49830 $Y=15200
X44 1 33 3 11 83 3 1 sky130_fd_sc_hd__dfxtp_1 $T=51400 23600 1 0 $X=51210 $Y=20640
X45 1 31 3 9 84 3 1 sky130_fd_sc_hd__dfxtp_1 $T=59220 18160 1 0 $X=59030 $Y=15200
X46 1 25 3 9 85 3 1 sky130_fd_sc_hd__dfxtp_1 $T=59220 18160 0 0 $X=59030 $Y=17920
X47 1 37 3 9 86 3 1 sky130_fd_sc_hd__dfxtp_1 $T=59220 29040 1 0 $X=59030 $Y=26080
X48 1 29 3 9 87 3 1 sky130_fd_sc_hd__dfxtp_1 $T=59220 29040 0 0 $X=59030 $Y=28800
X49 1 39 3 11 88 3 1 sky130_fd_sc_hd__dfxtp_1 $T=66120 23600 1 0 $X=65930 $Y=20640
X50 1 41 3 11 89 3 1 sky130_fd_sc_hd__dfxtp_1 $T=75320 18160 0 0 $X=75130 $Y=17920
X51 1 35 3 11 90 3 1 sky130_fd_sc_hd__dfxtp_1 $T=77160 23600 0 0 $X=76970 $Y=23360
X52 1 45 3 11 91 3 1 sky130_fd_sc_hd__dfxtp_1 $T=80840 23600 1 0 $X=80650 $Y=20640
X53 1 47 3 11 92 3 1 sky130_fd_sc_hd__dfxtp_1 $T=90960 23600 0 0 $X=90770 $Y=23360
X54 1 43 3 11 93 3 1 sky130_fd_sc_hd__dfxtp_1 $T=93720 18160 0 0 $X=93530 $Y=17920
X55 1 51 3 11 94 3 1 sky130_fd_sc_hd__dfxtp_1 $T=95560 23600 1 0 $X=95370 $Y=20640
X56 1 53 3 12 95 3 1 sky130_fd_sc_hd__dfxtp_1 $T=110280 23600 1 0 $X=110090 $Y=20640
X57 1 49 3 12 96 3 1 sky130_fd_sc_hd__dfxtp_1 $T=118100 18160 0 0 $X=117910 $Y=17920
X58 1 17 3 12 97 3 1 sky130_fd_sc_hd__dfxtp_1 $T=118100 23600 0 0 $X=117910 $Y=23360
X59 1 59 3 12 98 3 1 sky130_fd_sc_hd__dfxtp_1 $T=124540 23600 1 0 $X=124350 $Y=20640
X60 1 77 3 12 99 3 1 sky130_fd_sc_hd__dfxtp_1 $T=124540 29040 1 0 $X=124350 $Y=26080
X61 1 55 3 12 100 3 1 sky130_fd_sc_hd__dfxtp_1 $T=132820 18160 0 0 $X=132630 $Y=17920
X62 1 63 3 12 101 3 1 sky130_fd_sc_hd__dfxtp_1 $T=134660 23600 1 0 $X=134470 $Y=20640
X63 1 67 3 12 102 3 1 sky130_fd_sc_hd__dfxtp_1 $T=135120 29040 1 0 $X=134930 $Y=26080
X64 1 61 3 13 103 3 1 sky130_fd_sc_hd__dfxtp_1 $T=153060 18160 0 0 $X=152870 $Y=17920
X65 1 57 3 13 104 3 1 sky130_fd_sc_hd__dfxtp_1 $T=153520 18160 1 0 $X=153330 $Y=15200
X66 1 71 3 13 105 3 1 sky130_fd_sc_hd__dfxtp_1 $T=153520 23600 1 0 $X=153330 $Y=20640
X67 1 75 3 13 106 3 1 sky130_fd_sc_hd__dfxtp_1 $T=162260 23600 1 0 $X=162070 $Y=20640
X68 1 69 3 13 2 3 1 sky130_fd_sc_hd__dfxtp_1 $T=165480 18160 0 0 $X=165290 $Y=17920
X69 1 65 3 13 107 3 1 sky130_fd_sc_hd__dfxtp_1 $T=169160 18160 1 0 $X=168970 $Y=15200
X70 1 73 3 13 108 3 1 sky130_fd_sc_hd__dfxtp_1 $T=176980 23600 1 0 $X=176790 $Y=20640
X71 80 1 3 7 5 15 25 109 3 1 sky130_fd_sc_hd__a221o_1 $T=44500 18160 1 0 $X=44310 $Y=15200
X72 81 1 3 7 5 17 23 109 3 1 sky130_fd_sc_hd__a221o_1 $T=45880 23600 1 0 $X=45690 $Y=20640
X73 78 1 3 7 5 19 27 109 3 1 sky130_fd_sc_hd__a221o_1 $T=45880 29040 1 0 $X=45690 $Y=26080
X74 79 1 3 7 5 23 29 109 3 1 sky130_fd_sc_hd__a221o_1 $T=45880 29040 0 0 $X=45690 $Y=28800
X75 85 1 3 7 5 21 31 109 3 1 sky130_fd_sc_hd__a221o_1 $T=50480 12720 0 0 $X=50290 $Y=12480
X76 84 1 3 7 5 25 33 109 3 1 sky130_fd_sc_hd__a221o_1 $T=64280 12720 1 180 $X=60410 $Y=12480
X77 86 1 3 7 5 29 35 109 3 1 sky130_fd_sc_hd__a221o_1 $T=72100 18160 0 180 $X=68230 $Y=15200
X78 83 1 3 7 5 31 41 109 3 1 sky130_fd_sc_hd__a221o_1 $T=72100 18160 1 180 $X=68230 $Y=17920
X79 87 1 3 7 5 27 37 109 3 1 sky130_fd_sc_hd__a221o_1 $T=72100 29040 0 180 $X=68230 $Y=26080
X80 90 1 3 7 5 37 39 109 3 1 sky130_fd_sc_hd__a221o_1 $T=73940 29040 0 0 $X=73750 $Y=28800
X81 91 1 3 7 5 39 47 109 3 1 sky130_fd_sc_hd__a221o_1 $T=80380 29040 0 0 $X=80190 $Y=28800
X82 89 1 3 7 5 33 43 109 3 1 sky130_fd_sc_hd__a221o_1 $T=84980 18160 0 180 $X=81110 $Y=15200
X83 88 1 3 7 5 35 45 109 3 1 sky130_fd_sc_hd__a221o_1 $T=82680 18160 0 0 $X=82490 $Y=17920
X84 92 1 3 7 5 45 49 109 3 1 sky130_fd_sc_hd__a221o_1 $T=92800 12720 0 0 $X=92610 $Y=12480
X85 94 1 3 7 5 43 53 109 3 1 sky130_fd_sc_hd__a221o_1 $T=93720 29040 0 0 $X=93530 $Y=28800
X86 93 1 3 7 5 41 51 109 3 1 sky130_fd_sc_hd__a221o_1 $T=98320 18160 0 180 $X=94450 $Y=15200
X87 95 1 3 7 5 51 59 109 3 1 sky130_fd_sc_hd__a221o_1 $T=111200 18160 1 0 $X=111010 $Y=15200
X88 97 1 3 7 5 77 19 109 3 1 sky130_fd_sc_hd__a221o_1 $T=112580 23600 0 0 $X=112390 $Y=23360
X89 96 1 3 7 5 47 55 109 3 1 sky130_fd_sc_hd__a221o_1 $T=118100 12720 0 0 $X=117910 $Y=12480
X90 99 1 3 7 5 75 17 109 3 1 sky130_fd_sc_hd__a221o_1 $T=119480 29040 1 0 $X=119290 $Y=26080
X91 98 1 3 7 5 53 63 109 3 1 sky130_fd_sc_hd__a221o_1 $T=119480 29040 0 0 $X=119290 $Y=28800
X92 100 1 3 7 5 49 57 109 3 1 sky130_fd_sc_hd__a221o_1 $T=125460 18160 1 0 $X=125270 $Y=15200
X93 104 1 3 7 5 55 61 109 3 1 sky130_fd_sc_hd__a221o_1 $T=134660 18160 1 0 $X=134470 $Y=15200
X94 101 1 3 7 5 59 67 109 3 1 sky130_fd_sc_hd__a221o_1 $T=141560 23600 1 180 $X=137690 $Y=23360
X95 102 1 3 7 5 63 71 109 3 1 sky130_fd_sc_hd__a221o_1 $T=141560 29040 1 180 $X=137690 $Y=28800
X96 103 1 3 7 5 57 65 109 3 1 sky130_fd_sc_hd__a221o_1 $T=142480 18160 1 0 $X=142290 $Y=15200
X97 107 1 3 7 5 61 69 109 3 1 sky130_fd_sc_hd__a221o_1 $T=142480 18160 0 0 $X=142290 $Y=17920
X98 105 1 3 7 5 67 75 109 3 1 sky130_fd_sc_hd__a221o_1 $T=158580 23600 1 180 $X=154710 $Y=23360
X99 106 1 3 7 5 71 77 109 3 1 sky130_fd_sc_hd__a221o_1 $T=156740 29040 1 0 $X=156550 $Y=26080
X100 4 1 3 8 6 65 73 109 3 1 sky130_fd_sc_hd__a221o_1 $T=171460 12720 1 180 $X=167590 $Y=12480
X101 108 1 3 7 69 5 3 1 sky130_fd_sc_hd__a21o_1 $T=169160 23600 0 0 $X=168970 $Y=23360
X102 1 82 3 21 7 5 3 1 sky130_fd_sc_hd__or3_1 $T=45420 12720 0 0 $X=45230 $Y=12480
X103 1 109 3 6 3 1 sky130_fd_sc_hd__inv_2 $T=120400 34480 0 180 $X=118830 $Y=31520
X104 110 111 1 3 sky130_fd_sc_hd__tap_1 $T=10000 12720 1 0 $X=9810 $Y=9760
X105 112 113 1 3 sky130_fd_sc_hd__tap_1 $T=10000 12720 0 0 $X=9810 $Y=12480
X106 114 115 1 3 sky130_fd_sc_hd__tap_1 $T=10000 18160 1 0 $X=9810 $Y=15200
X107 116 117 1 3 sky130_fd_sc_hd__tap_1 $T=10000 18160 0 0 $X=9810 $Y=17920
X108 118 119 1 3 sky130_fd_sc_hd__tap_1 $T=10000 23600 1 0 $X=9810 $Y=20640
X109 120 121 1 3 sky130_fd_sc_hd__tap_1 $T=10000 23600 0 0 $X=9810 $Y=23360
X110 122 123 1 3 sky130_fd_sc_hd__tap_1 $T=10000 29040 1 0 $X=9810 $Y=26080
X111 124 125 1 3 sky130_fd_sc_hd__tap_1 $T=10000 29040 0 0 $X=9810 $Y=28800
X112 126 127 1 3 sky130_fd_sc_hd__tap_1 $T=10000 34480 1 0 $X=9810 $Y=31520
X113 128 129 1 3 sky130_fd_sc_hd__tap_1 $T=10000 34480 0 0 $X=9810 $Y=34240
X114 130 131 1 3 sky130_fd_sc_hd__tap_1 $T=10000 39920 1 0 $X=9810 $Y=36960
X115 132 133 1 3 sky130_fd_sc_hd__tap_1 $T=10000 39920 0 0 $X=9810 $Y=39680
X116 134 135 1 3 sky130_fd_sc_hd__tap_1 $T=10000 45360 1 0 $X=9810 $Y=42400
X117 136 137 1 3 sky130_fd_sc_hd__tap_1 $T=10000 45360 0 0 $X=9810 $Y=45120
X118 138 139 1 3 sky130_fd_sc_hd__tap_1 $T=10000 50800 1 0 $X=9810 $Y=47840
X119 140 141 1 3 sky130_fd_sc_hd__tap_1 $T=10000 50800 0 0 $X=9810 $Y=50560
X120 142 143 1 3 sky130_fd_sc_hd__tap_1 $T=10000 56240 1 0 $X=9810 $Y=53280
X121 144 145 1 3 sky130_fd_sc_hd__tap_1 $T=10000 56240 0 0 $X=9810 $Y=56000
X122 146 147 1 3 sky130_fd_sc_hd__tap_1 $T=189860 12720 0 180 $X=189210 $Y=9760
X123 148 149 1 3 sky130_fd_sc_hd__tap_1 $T=189860 12720 1 180 $X=189210 $Y=12480
X124 150 151 1 3 sky130_fd_sc_hd__tap_1 $T=189860 18160 0 180 $X=189210 $Y=15200
X125 152 153 1 3 sky130_fd_sc_hd__tap_1 $T=189860 18160 1 180 $X=189210 $Y=17920
X126 154 155 1 3 sky130_fd_sc_hd__tap_1 $T=189860 23600 0 180 $X=189210 $Y=20640
X127 156 157 1 3 sky130_fd_sc_hd__tap_1 $T=189860 23600 1 180 $X=189210 $Y=23360
X128 158 159 1 3 sky130_fd_sc_hd__tap_1 $T=189860 29040 0 180 $X=189210 $Y=26080
X129 160 161 1 3 sky130_fd_sc_hd__tap_1 $T=189860 29040 1 180 $X=189210 $Y=28800
X130 162 163 1 3 sky130_fd_sc_hd__tap_1 $T=189860 34480 0 180 $X=189210 $Y=31520
X131 164 165 1 3 sky130_fd_sc_hd__tap_1 $T=189860 34480 1 180 $X=189210 $Y=34240
X132 166 167 1 3 sky130_fd_sc_hd__tap_1 $T=189860 39920 0 180 $X=189210 $Y=36960
X133 168 169 1 3 sky130_fd_sc_hd__tap_1 $T=189860 39920 1 180 $X=189210 $Y=39680
X134 170 171 1 3 sky130_fd_sc_hd__tap_1 $T=189860 45360 0 180 $X=189210 $Y=42400
X135 172 173 1 3 sky130_fd_sc_hd__tap_1 $T=189860 45360 1 180 $X=189210 $Y=45120
X136 174 175 1 3 sky130_fd_sc_hd__tap_1 $T=189860 50800 0 180 $X=189210 $Y=47840
X137 176 177 1 3 sky130_fd_sc_hd__tap_1 $T=189860 50800 1 180 $X=189210 $Y=50560
X138 178 179 1 3 sky130_fd_sc_hd__tap_1 $T=189860 56240 0 180 $X=189210 $Y=53280
X139 180 181 1 3 sky130_fd_sc_hd__tap_1 $T=189860 56240 1 180 $X=189210 $Y=56000
X140 1 3 sky130_fd_sc_hd__tapvpwrvgnd_1 $T=29320 12720 1 0 $X=29130 $Y=9760
X141 1 3 sky130_fd_sc_hd__tapvpwrvgnd_1 $T=29320 12720 0 0 $X=29130 $Y=12480
X142 1 3 sky130_fd_sc_hd__tapvpwrvgnd_1 $T=29320 18160 1 0 $X=29130 $Y=15200
X143 1 3 sky130_fd_sc_hd__tapvpwrvgnd_1 $T=29320 18160 0 0 $X=29130 $Y=17920
X144 1 3 sky130_fd_sc_hd__tapvpwrvgnd_1 $T=29320 23600 1 0 $X=29130 $Y=20640
X145 1 3 sky130_fd_sc_hd__tapvpwrvgnd_1 $T=29320 23600 0 0 $X=29130 $Y=23360
X146 1 3 sky130_fd_sc_hd__tapvpwrvgnd_1 $T=44040 18160 1 0 $X=43850 $Y=15200
X147 1 3 sky130_fd_sc_hd__tapvpwrvgnd_1 $T=44040 18160 0 0 $X=43850 $Y=17920
X148 1 3 sky130_fd_sc_hd__tapvpwrvgnd_1 $T=44040 23600 1 0 $X=43850 $Y=20640